Circuit: * C:\Users\drsur\Documents\LTspiceXVII\10bitp.asc

Instance "m:x1:x3:5": Length shorter than recommended for a level 1 MOSFET.
Instance "m:x1:x3:5": Width narrower than recommended for a level 1 MOSFET.
Instance "m:x1:x3:4": Length shorter than recommended for a level 1 MOSFET.
Instance "m:x1:x3:4": Width narrower than recommended for a level 1 MOSFET.
Instance "m:x1:x3:3": Length shorter than recommended for a level 1 MOSFET.
Instance "m:x1:x3:3": Width narrower than recommended for a level 1 MOSFET.
Instance "m:x1:x2:x3:5": Length shorter than recommended for a level 1 MOSFET.
Instance "m:x1:x2:x3:5": Width narrower than recommended for a level 1 MOSFET.
Instance "m:x1:x2:x3:4": Length shorter than recommended for a level 1 MOSFET.
Instance "m:x1:x2:x3:4": Width narrower than recommended for a level 1 MOSFET.
Instance "m:x1:x2:x3:3": Length shorter than recommended for a level 1 MOSFET.
Instance "m:x1:x2:x3:3": Width narrower than recommended for a level 1 MOSFET.
Instance "m:x1:x2:x2:x3:5": Length shorter than recommended for a level 1 MOSFET.
Instance "m:x1:x2:x2:x3:5": Width narrower than recommended for a level 1 MOSFET.
Instance "m:x1:x2:x2:x3:4": Length shorter than recommended for a level 1 MOSFET.
Instance "m:x1:x2:x2:x3:4": Width narrower than recommended for a level 1 MOSFET.
Instance "m:x1:x2:x2:x3:3": Length shorter than recommended for a level 1 MOSFET.
Instance "m:x1:x2:x2:x3:3": Width narrower than recommended for a level 1 MOSFET.
Instance "m:x1:x2:x2:x2:x3:5": Length shorter than recommended for a level 1 MOSFET.
Instance "m:x1:x2:x2:x2:x3:5": Width narrower than recommended for a level 1 MOSFET.
Instance "m:x1:x2:x2:x2:x3:4": Length shorter than recommended for a level 1 MOSFET.
Instance "m:x1:x2:x2:x2:x3:4": Width narrower than recommended for a level 1 MOSFET.
Instance "m:x1:x2:x2:x2:x3:3": Length shorter than recommended for a level 1 MOSFET.
Instance "m:x1:x2:x2:x2:x3:3": Width narrower than recommended for a level 1 MOSFET.
Instance "m:x1:x2:x2:x2:x2:x3:5": Length shorter than recommended for a level 1 MOSFET.
Instance "m:x1:x2:x2:x2:x2:x3:5": Width narrower than recommended for a level 1 MOSFET.
Instance "m:x1:x2:x2:x2:x2:x3:4": Length shorter than recommended for a level 1 MOSFET.
Instance "m:x1:x2:x2:x2:x2:x3:4": Width narrower than recommended for a level 1 MOSFET.
Instance "m:x1:x2:x2:x2:x2:x3:3": Length shorter than recommended for a level 1 MOSFET.
Instance "m:x1:x2:x2:x2:x2:x3:3": Width narrower than recommended for a level 1 MOSFET.
Instance "m:x1:x2:x2:x2:x2:x2:x3:5": Length shorter than recommended for a level 1 MOSFET.
Instance "m:x1:x2:x2:x2:x2:x2:x3:5": Width narrower than recommended for a level 1 MOSFET.
Instance "m:x1:x2:x2:x2:x2:x2:x3:4": Length shorter than recommended for a level 1 MOSFET.
Instance "m:x1:x2:x2:x2:x2:x2:x3:4": Width narrower than recommended for a level 1 MOSFET.
Instance "m:x1:x2:x2:x2:x2:x2:x3:3": Length shorter than recommended for a level 1 MOSFET.
Instance "m:x1:x2:x2:x2:x2:x2:x3:3": Width narrower than recommended for a level 1 MOSFET.
Instance "m:x1:x2:x2:x2:x2:x2:x2:x3:5": Length shorter than recommended for a level 1 MOSFET.
Instance "m:x1:x2:x2:x2:x2:x2:x2:x3:5": Width narrower than recommended for a level 1 MOSFET.
Instance "m:x1:x2:x2:x2:x2:x2:x2:x3:4": Length shorter than recommended for a level 1 MOSFET.
Instance "m:x1:x2:x2:x2:x2:x2:x2:x3:4": Width narrower than recommended for a level 1 MOSFET.
Instance "m:x1:x2:x2:x2:x2:x2:x2:x3:3": Length shorter than recommended for a level 1 MOSFET.
Instance "m:x1:x2:x2:x2:x2:x2:x2:x3:3": Width narrower than recommended for a level 1 MOSFET.
Instance "m:x1:x2:x2:x2:x2:x2:x2:x2:x3:5": Length shorter than recommended for a level 1 MOSFET.
Instance "m:x1:x2:x2:x2:x2:x2:x2:x2:x3:5": Width narrower than recommended for a level 1 MOSFET.
Instance "m:x1:x2:x2:x2:x2:x2:x2:x2:x3:4": Length shorter than recommended for a level 1 MOSFET.
Instance "m:x1:x2:x2:x2:x2:x2:x2:x2:x3:4": Width narrower than recommended for a level 1 MOSFET.
Instance "m:x1:x2:x2:x2:x2:x2:x2:x2:x3:3": Length shorter than recommended for a level 1 MOSFET.
Instance "m:x1:x2:x2:x2:x2:x2:x2:x2:x3:3": Width narrower than recommended for a level 1 MOSFET.
Instance "m:x1:x2:x2:x2:x2:x2:x2:x2:x2:x3:5": Length shorter than recommended for a level 1 MOSFET.
Instance "m:x1:x2:x2:x2:x2:x2:x2:x2:x2:x3:5": Width narrower than recommended for a level 1 MOSFET.
Instance "m:x1:x2:x2:x2:x2:x2:x2:x2:x2:x3:4": Length shorter than recommended for a level 1 MOSFET.
Instance "m:x1:x2:x2:x2:x2:x2:x2:x2:x2:x3:4": Width narrower than recommended for a level 1 MOSFET.
Instance "m:x1:x2:x2:x2:x2:x2:x2:x2:x2:x3:3": Length shorter than recommended for a level 1 MOSFET.
Instance "m:x1:x2:x2:x2:x2:x2:x2:x2:x2:x3:3": Width narrower than recommended for a level 1 MOSFET.
Instance "m:x1:x2:x2:x2:x2:x2:x2:x2:x2:x2:5": Length shorter than recommended for a level 1 MOSFET.
Instance "m:x1:x2:x2:x2:x2:x2:x2:x2:x2:x2:5": Width narrower than recommended for a level 1 MOSFET.
Instance "m:x1:x2:x2:x2:x2:x2:x2:x2:x2:x2:4": Length shorter than recommended for a level 1 MOSFET.
Instance "m:x1:x2:x2:x2:x2:x2:x2:x2:x2:x2:4": Width narrower than recommended for a level 1 MOSFET.
Instance "m:x1:x2:x2:x2:x2:x2:x2:x2:x2:x2:3": Length shorter than recommended for a level 1 MOSFET.
Instance "m:x1:x2:x2:x2:x2:x2:x2:x2:x2:x2:3": Width narrower than recommended for a level 1 MOSFET.
Instance "m:x1:x2:x2:x2:x2:x2:x2:x2:x2:x1:5": Length shorter than recommended for a level 1 MOSFET.
Instance "m:x1:x2:x2:x2:x2:x2:x2:x2:x2:x1:5": Width narrower than recommended for a level 1 MOSFET.
Instance "m:x1:x2:x2:x2:x2:x2:x2:x2:x2:x1:4": Length shorter than recommended for a level 1 MOSFET.
Instance "m:x1:x2:x2:x2:x2:x2:x2:x2:x2:x1:4": Width narrower than recommended for a level 1 MOSFET.
Instance "m:x1:x2:x2:x2:x2:x2:x2:x2:x2:x1:3": Length shorter than recommended for a level 1 MOSFET.
Instance "m:x1:x2:x2:x2:x2:x2:x2:x2:x2:x1:3": Width narrower than recommended for a level 1 MOSFET.
Instance "m:x1:x2:x2:x2:x2:x2:x2:x2:x1:x3:5": Length shorter than recommended for a level 1 MOSFET.
Instance "m:x1:x2:x2:x2:x2:x2:x2:x2:x1:x3:5": Width narrower than recommended for a level 1 MOSFET.
Instance "m:x1:x2:x2:x2:x2:x2:x2:x2:x1:x3:4": Length shorter than recommended for a level 1 MOSFET.
Instance "m:x1:x2:x2:x2:x2:x2:x2:x2:x1:x3:4": Width narrower than recommended for a level 1 MOSFET.
Instance "m:x1:x2:x2:x2:x2:x2:x2:x2:x1:x3:3": Length shorter than recommended for a level 1 MOSFET.
Instance "m:x1:x2:x2:x2:x2:x2:x2:x2:x1:x3:3": Width narrower than recommended for a level 1 MOSFET.
Instance "m:x1:x2:x2:x2:x2:x2:x2:x2:x1:x2:5": Length shorter than recommended for a level 1 MOSFET.
Instance "m:x1:x2:x2:x2:x2:x2:x2:x2:x1:x2:5": Width narrower than recommended for a level 1 MOSFET.
Instance "m:x1:x2:x2:x2:x2:x2:x2:x2:x1:x2:4": Length shorter than recommended for a level 1 MOSFET.
Instance "m:x1:x2:x2:x2:x2:x2:x2:x2:x1:x2:4": Width narrower than recommended for a level 1 MOSFET.
Instance "m:x1:x2:x2:x2:x2:x2:x2:x2:x1:x2:3": Length shorter than recommended for a level 1 MOSFET.
Instance "m:x1:x2:x2:x2:x2:x2:x2:x2:x1:x2:3": Width narrower than recommended for a level 1 MOSFET.
Instance "m:x1:x2:x2:x2:x2:x2:x2:x2:x1:x1:5": Length shorter than recommended for a level 1 MOSFET.
Instance "m:x1:x2:x2:x2:x2:x2:x2:x2:x1:x1:5": Width narrower than recommended for a level 1 MOSFET.
Instance "m:x1:x2:x2:x2:x2:x2:x2:x2:x1:x1:4": Length shorter than recommended for a level 1 MOSFET.
Instance "m:x1:x2:x2:x2:x2:x2:x2:x2:x1:x1:4": Width narrower than recommended for a level 1 MOSFET.
Instance "m:x1:x2:x2:x2:x2:x2:x2:x2:x1:x1:3": Length shorter than recommended for a level 1 MOSFET.
Instance "m:x1:x2:x2:x2:x2:x2:x2:x2:x1:x1:3": Width narrower than recommended for a level 1 MOSFET.
Instance "m:x1:x2:x2:x2:x2:x2:x2:x1:x3:5": Length shorter than recommended for a level 1 MOSFET.
Instance "m:x1:x2:x2:x2:x2:x2:x2:x1:x3:5": Width narrower than recommended for a level 1 MOSFET.
Instance "m:x1:x2:x2:x2:x2:x2:x2:x1:x3:4": Length shorter than recommended for a level 1 MOSFET.
Instance "m:x1:x2:x2:x2:x2:x2:x2:x1:x3:4": Width narrower than recommended for a level 1 MOSFET.
Instance "m:x1:x2:x2:x2:x2:x2:x2:x1:x3:3": Length shorter than recommended for a level 1 MOSFET.
Instance "m:x1:x2:x2:x2:x2:x2:x2:x1:x3:3": Width narrower than recommended for a level 1 MOSFET.
Instance "m:x1:x2:x2:x2:x2:x2:x2:x1:x2:x3:5": Length shorter than recommended for a level 1 MOSFET.
Instance "m:x1:x2:x2:x2:x2:x2:x2:x1:x2:x3:5": Width narrower than recommended for a level 1 MOSFET.
Instance "m:x1:x2:x2:x2:x2:x2:x2:x1:x2:x3:4": Length shorter than recommended for a level 1 MOSFET.
Instance "m:x1:x2:x2:x2:x2:x2:x2:x1:x2:x3:4": Width narrower than recommended for a level 1 MOSFET.
Instance "m:x1:x2:x2:x2:x2:x2:x2:x1:x2:x3:3": Length shorter than recommended for a level 1 MOSFET.
Instance "m:x1:x2:x2:x2:x2:x2:x2:x1:x2:x3:3": Width narrower than recommended for a level 1 MOSFET.
Instance "m:x1:x2:x2:x2:x2:x2:x2:x1:x2:x2:5": Length shorter than recommended for a level 1 MOSFET.
Instance "m:x1:x2:x2:x2:x2:x2:x2:x1:x2:x2:5": Width narrower than recommended for a level 1 MOSFET.
Instance "m:x1:x2:x2:x2:x2:x2:x2:x1:x2:x2:4": Length shorter than recommended for a level 1 MOSFET.
Instance "m:x1:x2:x2:x2:x2:x2:x2:x1:x2:x2:4": Width narrower than recommended for a level 1 MOSFET.
Instance "m:x1:x2:x2:x2:x2:x2:x2:x1:x2:x2:3": Length shorter than recommended for a level 1 MOSFET.
Instance "m:x1:x2:x2:x2:x2:x2:x2:x1:x2:x2:3": Width narrower than recommended for a level 1 MOSFET.
Instance "m:x1:x2:x2:x2:x2:x2:x2:x1:x2:x1:5": Length shorter than recommended for a level 1 MOSFET.
Instance "m:x1:x2:x2:x2:x2:x2:x2:x1:x2:x1:5": Width narrower than recommended for a level 1 MOSFET.
Instance "m:x1:x2:x2:x2:x2:x2:x2:x1:x2:x1:4": Length shorter than recommended for a level 1 MOSFET.
Instance "m:x1:x2:x2:x2:x2:x2:x2:x1:x2:x1:4": Width narrower than recommended for a level 1 MOSFET.
Instance "m:x1:x2:x2:x2:x2:x2:x2:x1:x2:x1:3": Length shorter than recommended for a level 1 MOSFET.
Instance "m:x1:x2:x2:x2:x2:x2:x2:x1:x2:x1:3": Width narrower than recommended for a level 1 MOSFET.
Instance "m:x1:x2:x2:x2:x2:x2:x2:x1:x1:x3:5": Length shorter than recommended for a level 1 MOSFET.
Instance "m:x1:x2:x2:x2:x2:x2:x2:x1:x1:x3:5": Width narrower than recommended for a level 1 MOSFET.
Instance "m:x1:x2:x2:x2:x2:x2:x2:x1:x1:x3:4": Length shorter than recommended for a level 1 MOSFET.
Instance "m:x1:x2:x2:x2:x2:x2:x2:x1:x1:x3:4": Width narrower than recommended for a level 1 MOSFET.
Instance "m:x1:x2:x2:x2:x2:x2:x2:x1:x1:x3:3": Length shorter than recommended for a level 1 MOSFET.
Instance "m:x1:x2:x2:x2:x2:x2:x2:x1:x1:x3:3": Width narrower than recommended for a level 1 MOSFET.
Instance "m:x1:x2:x2:x2:x2:x2:x2:x1:x1:x2:5": Length shorter than recommended for a level 1 MOSFET.
Instance "m:x1:x2:x2:x2:x2:x2:x2:x1:x1:x2:5": Width narrower than recommended for a level 1 MOSFET.
Instance "m:x1:x2:x2:x2:x2:x2:x2:x1:x1:x2:4": Length shorter than recommended for a level 1 MOSFET.
Instance "m:x1:x2:x2:x2:x2:x2:x2:x1:x1:x2:4": Width narrower than recommended for a level 1 MOSFET.
Instance "m:x1:x2:x2:x2:x2:x2:x2:x1:x1:x2:3": Length shorter than recommended for a level 1 MOSFET.
Instance "m:x1:x2:x2:x2:x2:x2:x2:x1:x1:x2:3": Width narrower than recommended for a level 1 MOSFET.
Instance "m:x1:x2:x2:x2:x2:x2:x2:x1:x1:x1:5": Length shorter than recommended for a level 1 MOSFET.
Instance "m:x1:x2:x2:x2:x2:x2:x2:x1:x1:x1:5": Width narrower than recommended for a level 1 MOSFET.
Instance "m:x1:x2:x2:x2:x2:x2:x2:x1:x1:x1:4": Length shorter than recommended for a level 1 MOSFET.
Instance "m:x1:x2:x2:x2:x2:x2:x2:x1:x1:x1:4": Width narrower than recommended for a level 1 MOSFET.
Instance "m:x1:x2:x2:x2:x2:x2:x2:x1:x1:x1:3": Length shorter than recommended for a level 1 MOSFET.
Instance "m:x1:x2:x2:x2:x2:x2:x2:x1:x1:x1:3": Width narrower than recommended for a level 1 MOSFET.
Instance "m:x1:x2:x2:x2:x2:x2:x1:x3:5": Length shorter than recommended for a level 1 MOSFET.
Instance "m:x1:x2:x2:x2:x2:x2:x1:x3:5": Width narrower than recommended for a level 1 MOSFET.
Instance "m:x1:x2:x2:x2:x2:x2:x1:x3:4": Length shorter than recommended for a level 1 MOSFET.
Instance "m:x1:x2:x2:x2:x2:x2:x1:x3:4": Width narrower than recommended for a level 1 MOSFET.
Instance "m:x1:x2:x2:x2:x2:x2:x1:x3:3": Length shorter than recommended for a level 1 MOSFET.
Instance "m:x1:x2:x2:x2:x2:x2:x1:x3:3": Width narrower than recommended for a level 1 MOSFET.
Instance "m:x1:x2:x2:x2:x2:x2:x1:x2:x3:5": Length shorter than recommended for a level 1 MOSFET.
Instance "m:x1:x2:x2:x2:x2:x2:x1:x2:x3:5": Width narrower than recommended for a level 1 MOSFET.
Instance "m:x1:x2:x2:x2:x2:x2:x1:x2:x3:4": Length shorter than recommended for a level 1 MOSFET.
Instance "m:x1:x2:x2:x2:x2:x2:x1:x2:x3:4": Width narrower than recommended for a level 1 MOSFET.
Instance "m:x1:x2:x2:x2:x2:x2:x1:x2:x3:3": Length shorter than recommended for a level 1 MOSFET.
Instance "m:x1:x2:x2:x2:x2:x2:x1:x2:x3:3": Width narrower than recommended for a level 1 MOSFET.
Instance "m:x1:x2:x2:x2:x2:x2:x1:x2:x2:x3:5": Length shorter than recommended for a level 1 MOSFET.
Instance "m:x1:x2:x2:x2:x2:x2:x1:x2:x2:x3:5": Width narrower than recommended for a level 1 MOSFET.
Instance "m:x1:x2:x2:x2:x2:x2:x1:x2:x2:x3:4": Length shorter than recommended for a level 1 MOSFET.
Instance "m:x1:x2:x2:x2:x2:x2:x1:x2:x2:x3:4": Width narrower than recommended for a level 1 MOSFET.
Instance "m:x1:x2:x2:x2:x2:x2:x1:x2:x2:x3:3": Length shorter than recommended for a level 1 MOSFET.
Instance "m:x1:x2:x2:x2:x2:x2:x1:x2:x2:x3:3": Width narrower than recommended for a level 1 MOSFET.
Instance "m:x1:x2:x2:x2:x2:x2:x1:x2:x2:x2:5": Length shorter than recommended for a level 1 MOSFET.
Instance "m:x1:x2:x2:x2:x2:x2:x1:x2:x2:x2:5": Width narrower than recommended for a level 1 MOSFET.
Instance "m:x1:x2:x2:x2:x2:x2:x1:x2:x2:x2:4": Length shorter than recommended for a level 1 MOSFET.
Instance "m:x1:x2:x2:x2:x2:x2:x1:x2:x2:x2:4": Width narrower than recommended for a level 1 MOSFET.
Instance "m:x1:x2:x2:x2:x2:x2:x1:x2:x2:x2:3": Length shorter than recommended for a level 1 MOSFET.
Instance "m:x1:x2:x2:x2:x2:x2:x1:x2:x2:x2:3": Width narrower than recommended for a level 1 MOSFET.
Instance "m:x1:x2:x2:x2:x2:x2:x1:x2:x2:x1:5": Length shorter than recommended for a level 1 MOSFET.
Instance "m:x1:x2:x2:x2:x2:x2:x1:x2:x2:x1:5": Width narrower than recommended for a level 1 MOSFET.
Instance "m:x1:x2:x2:x2:x2:x2:x1:x2:x2:x1:4": Length shorter than recommended for a level 1 MOSFET.
Instance "m:x1:x2:x2:x2:x2:x2:x1:x2:x2:x1:4": Width narrower than recommended for a level 1 MOSFET.
Instance "m:x1:x2:x2:x2:x2:x2:x1:x2:x2:x1:3": Length shorter than recommended for a level 1 MOSFET.
Instance "m:x1:x2:x2:x2:x2:x2:x1:x2:x2:x1:3": Width narrower than recommended for a level 1 MOSFET.
Instance "m:x1:x2:x2:x2:x2:x2:x1:x2:x1:x3:5": Length shorter than recommended for a level 1 MOSFET.
Instance "m:x1:x2:x2:x2:x2:x2:x1:x2:x1:x3:5": Width narrower than recommended for a level 1 MOSFET.
Instance "m:x1:x2:x2:x2:x2:x2:x1:x2:x1:x3:4": Length shorter than recommended for a level 1 MOSFET.
Instance "m:x1:x2:x2:x2:x2:x2:x1:x2:x1:x3:4": Width narrower than recommended for a level 1 MOSFET.
Instance "m:x1:x2:x2:x2:x2:x2:x1:x2:x1:x3:3": Length shorter than recommended for a level 1 MOSFET.
Instance "m:x1:x2:x2:x2:x2:x2:x1:x2:x1:x3:3": Width narrower than recommended for a level 1 MOSFET.
Instance "m:x1:x2:x2:x2:x2:x2:x1:x2:x1:x2:5": Length shorter than recommended for a level 1 MOSFET.
Instance "m:x1:x2:x2:x2:x2:x2:x1:x2:x1:x2:5": Width narrower than recommended for a level 1 MOSFET.
Instance "m:x1:x2:x2:x2:x2:x2:x1:x2:x1:x2:4": Length shorter than recommended for a level 1 MOSFET.
Instance "m:x1:x2:x2:x2:x2:x2:x1:x2:x1:x2:4": Width narrower than recommended for a level 1 MOSFET.
Instance "m:x1:x2:x2:x2:x2:x2:x1:x2:x1:x2:3": Length shorter than recommended for a level 1 MOSFET.
Instance "m:x1:x2:x2:x2:x2:x2:x1:x2:x1:x2:3": Width narrower than recommended for a level 1 MOSFET.
Instance "m:x1:x2:x2:x2:x2:x2:x1:x2:x1:x1:5": Length shorter than recommended for a level 1 MOSFET.
Instance "m:x1:x2:x2:x2:x2:x2:x1:x2:x1:x1:5": Width narrower than recommended for a level 1 MOSFET.
Instance "m:x1:x2:x2:x2:x2:x2:x1:x2:x1:x1:4": Length shorter than recommended for a level 1 MOSFET.
Instance "m:x1:x2:x2:x2:x2:x2:x1:x2:x1:x1:4": Width narrower than recommended for a level 1 MOSFET.
Instance "m:x1:x2:x2:x2:x2:x2:x1:x2:x1:x1:3": Length shorter than recommended for a level 1 MOSFET.
Instance "m:x1:x2:x2:x2:x2:x2:x1:x2:x1:x1:3": Width narrower than recommended for a level 1 MOSFET.
Instance "m:x1:x2:x2:x2:x2:x2:x1:x1:x3:5": Length shorter than recommended for a level 1 MOSFET.
Instance "m:x1:x2:x2:x2:x2:x2:x1:x1:x3:5": Width narrower than recommended for a level 1 MOSFET.
Instance "m:x1:x2:x2:x2:x2:x2:x1:x1:x3:4": Length shorter than recommended for a level 1 MOSFET.
Instance "m:x1:x2:x2:x2:x2:x2:x1:x1:x3:4": Width narrower than recommended for a level 1 MOSFET.
Instance "m:x1:x2:x2:x2:x2:x2:x1:x1:x3:3": Length shorter than recommended for a level 1 MOSFET.
Instance "m:x1:x2:x2:x2:x2:x2:x1:x1:x3:3": Width narrower than recommended for a level 1 MOSFET.
Instance "m:x1:x2:x2:x2:x2:x2:x1:x1:x2:x3:5": Length shorter than recommended for a level 1 MOSFET.
Instance "m:x1:x2:x2:x2:x2:x2:x1:x1:x2:x3:5": Width narrower than recommended for a level 1 MOSFET.
Instance "m:x1:x2:x2:x2:x2:x2:x1:x1:x2:x3:4": Length shorter than recommended for a level 1 MOSFET.
Instance "m:x1:x2:x2:x2:x2:x2:x1:x1:x2:x3:4": Width narrower than recommended for a level 1 MOSFET.
Instance "m:x1:x2:x2:x2:x2:x2:x1:x1:x2:x3:3": Length shorter than recommended for a level 1 MOSFET.
Instance "m:x1:x2:x2:x2:x2:x2:x1:x1:x2:x3:3": Width narrower than recommended for a level 1 MOSFET.
Instance "m:x1:x2:x2:x2:x2:x2:x1:x1:x2:x2:5": Length shorter than recommended for a level 1 MOSFET.
Instance "m:x1:x2:x2:x2:x2:x2:x1:x1:x2:x2:5": Width narrower than recommended for a level 1 MOSFET.
Instance "m:x1:x2:x2:x2:x2:x2:x1:x1:x2:x2:4": Length shorter than recommended for a level 1 MOSFET.
Instance "m:x1:x2:x2:x2:x2:x2:x1:x1:x2:x2:4": Width narrower than recommended for a level 1 MOSFET.
Instance "m:x1:x2:x2:x2:x2:x2:x1:x1:x2:x2:3": Length shorter than recommended for a level 1 MOSFET.
Instance "m:x1:x2:x2:x2:x2:x2:x1:x1:x2:x2:3": Width narrower than recommended for a level 1 MOSFET.
Instance "m:x1:x2:x2:x2:x2:x2:x1:x1:x2:x1:5": Length shorter than recommended for a level 1 MOSFET.
Instance "m:x1:x2:x2:x2:x2:x2:x1:x1:x2:x1:5": Width narrower than recommended for a level 1 MOSFET.
Instance "m:x1:x2:x2:x2:x2:x2:x1:x1:x2:x1:4": Length shorter than recommended for a level 1 MOSFET.
Instance "m:x1:x2:x2:x2:x2:x2:x1:x1:x2:x1:4": Width narrower than recommended for a level 1 MOSFET.
Instance "m:x1:x2:x2:x2:x2:x2:x1:x1:x2:x1:3": Length shorter than recommended for a level 1 MOSFET.
Instance "m:x1:x2:x2:x2:x2:x2:x1:x1:x2:x1:3": Width narrower than recommended for a level 1 MOSFET.
Instance "m:x1:x2:x2:x2:x2:x2:x1:x1:x1:x3:5": Length shorter than recommended for a level 1 MOSFET.
Instance "m:x1:x2:x2:x2:x2:x2:x1:x1:x1:x3:5": Width narrower than recommended for a level 1 MOSFET.
Instance "m:x1:x2:x2:x2:x2:x2:x1:x1:x1:x3:4": Length shorter than recommended for a level 1 MOSFET.
Instance "m:x1:x2:x2:x2:x2:x2:x1:x1:x1:x3:4": Width narrower than recommended for a level 1 MOSFET.
Instance "m:x1:x2:x2:x2:x2:x2:x1:x1:x1:x3:3": Length shorter than recommended for a level 1 MOSFET.
Instance "m:x1:x2:x2:x2:x2:x2:x1:x1:x1:x3:3": Width narrower than recommended for a level 1 MOSFET.
Instance "m:x1:x2:x2:x2:x2:x2:x1:x1:x1:x2:5": Length shorter than recommended for a level 1 MOSFET.
Instance "m:x1:x2:x2:x2:x2:x2:x1:x1:x1:x2:5": Width narrower than recommended for a level 1 MOSFET.
Instance "m:x1:x2:x2:x2:x2:x2:x1:x1:x1:x2:4": Length shorter than recommended for a level 1 MOSFET.
Instance "m:x1:x2:x2:x2:x2:x2:x1:x1:x1:x2:4": Width narrower than recommended for a level 1 MOSFET.
Instance "m:x1:x2:x2:x2:x2:x2:x1:x1:x1:x2:3": Length shorter than recommended for a level 1 MOSFET.
Instance "m:x1:x2:x2:x2:x2:x2:x1:x1:x1:x2:3": Width narrower than recommended for a level 1 MOSFET.
Instance "m:x1:x2:x2:x2:x2:x2:x1:x1:x1:x1:5": Length shorter than recommended for a level 1 MOSFET.
Instance "m:x1:x2:x2:x2:x2:x2:x1:x1:x1:x1:5": Width narrower than recommended for a level 1 MOSFET.
Instance "m:x1:x2:x2:x2:x2:x2:x1:x1:x1:x1:4": Length shorter than recommended for a level 1 MOSFET.
Instance "m:x1:x2:x2:x2:x2:x2:x1:x1:x1:x1:4": Width narrower than recommended for a level 1 MOSFET.
Instance "m:x1:x2:x2:x2:x2:x2:x1:x1:x1:x1:3": Length shorter than recommended for a level 1 MOSFET.
Instance "m:x1:x2:x2:x2:x2:x2:x1:x1:x1:x1:3": Width narrower than recommended for a level 1 MOSFET.
Instance "m:x1:x2:x2:x2:x2:x1:x3:5": Length shorter than recommended for a level 1 MOSFET.
Instance "m:x1:x2:x2:x2:x2:x1:x3:5": Width narrower than recommended for a level 1 MOSFET.
Instance "m:x1:x2:x2:x2:x2:x1:x3:4": Length shorter than recommended for a level 1 MOSFET.
Instance "m:x1:x2:x2:x2:x2:x1:x3:4": Width narrower than recommended for a level 1 MOSFET.
Instance "m:x1:x2:x2:x2:x2:x1:x3:3": Length shorter than recommended for a level 1 MOSFET.
Instance "m:x1:x2:x2:x2:x2:x1:x3:3": Width narrower than recommended for a level 1 MOSFET.
Instance "m:x1:x2:x2:x2:x2:x1:x2:x3:5": Length shorter than recommended for a level 1 MOSFET.
Instance "m:x1:x2:x2:x2:x2:x1:x2:x3:5": Width narrower than recommended for a level 1 MOSFET.
Instance "m:x1:x2:x2:x2:x2:x1:x2:x3:4": Length shorter than recommended for a level 1 MOSFET.
Instance "m:x1:x2:x2:x2:x2:x1:x2:x3:4": Width narrower than recommended for a level 1 MOSFET.
Instance "m:x1:x2:x2:x2:x2:x1:x2:x3:3": Length shorter than recommended for a level 1 MOSFET.
Instance "m:x1:x2:x2:x2:x2:x1:x2:x3:3": Width narrower than recommended for a level 1 MOSFET.
Instance "m:x1:x2:x2:x2:x2:x1:x2:x2:x3:5": Length shorter than recommended for a level 1 MOSFET.
Instance "m:x1:x2:x2:x2:x2:x1:x2:x2:x3:5": Width narrower than recommended for a level 1 MOSFET.
Instance "m:x1:x2:x2:x2:x2:x1:x2:x2:x3:4": Length shorter than recommended for a level 1 MOSFET.
Instance "m:x1:x2:x2:x2:x2:x1:x2:x2:x3:4": Width narrower than recommended for a level 1 MOSFET.
Instance "m:x1:x2:x2:x2:x2:x1:x2:x2:x3:3": Length shorter than recommended for a level 1 MOSFET.
Instance "m:x1:x2:x2:x2:x2:x1:x2:x2:x3:3": Width narrower than recommended for a level 1 MOSFET.
Instance "m:x1:x2:x2:x2:x2:x1:x2:x2:x2:x3:5": Length shorter than recommended for a level 1 MOSFET.
Instance "m:x1:x2:x2:x2:x2:x1:x2:x2:x2:x3:5": Width narrower than recommended for a level 1 MOSFET.
Instance "m:x1:x2:x2:x2:x2:x1:x2:x2:x2:x3:4": Length shorter than recommended for a level 1 MOSFET.
Instance "m:x1:x2:x2:x2:x2:x1:x2:x2:x2:x3:4": Width narrower than recommended for a level 1 MOSFET.
Instance "m:x1:x2:x2:x2:x2:x1:x2:x2:x2:x3:3": Length shorter than recommended for a level 1 MOSFET.
Instance "m:x1:x2:x2:x2:x2:x1:x2:x2:x2:x3:3": Width narrower than recommended for a level 1 MOSFET.
Instance "m:x1:x2:x2:x2:x2:x1:x2:x2:x2:x2:5": Length shorter than recommended for a level 1 MOSFET.
Instance "m:x1:x2:x2:x2:x2:x1:x2:x2:x2:x2:5": Width narrower than recommended for a level 1 MOSFET.
Instance "m:x1:x2:x2:x2:x2:x1:x2:x2:x2:x2:4": Length shorter than recommended for a level 1 MOSFET.
Instance "m:x1:x2:x2:x2:x2:x1:x2:x2:x2:x2:4": Width narrower than recommended for a level 1 MOSFET.
Instance "m:x1:x2:x2:x2:x2:x1:x2:x2:x2:x2:3": Length shorter than recommended for a level 1 MOSFET.
Instance "m:x1:x2:x2:x2:x2:x1:x2:x2:x2:x2:3": Width narrower than recommended for a level 1 MOSFET.
Instance "m:x1:x2:x2:x2:x2:x1:x2:x2:x2:x1:5": Length shorter than recommended for a level 1 MOSFET.
Instance "m:x1:x2:x2:x2:x2:x1:x2:x2:x2:x1:5": Width narrower than recommended for a level 1 MOSFET.
Instance "m:x1:x2:x2:x2:x2:x1:x2:x2:x2:x1:4": Length shorter than recommended for a level 1 MOSFET.
Instance "m:x1:x2:x2:x2:x2:x1:x2:x2:x2:x1:4": Width narrower than recommended for a level 1 MOSFET.
Instance "m:x1:x2:x2:x2:x2:x1:x2:x2:x2:x1:3": Length shorter than recommended for a level 1 MOSFET.
Instance "m:x1:x2:x2:x2:x2:x1:x2:x2:x2:x1:3": Width narrower than recommended for a level 1 MOSFET.
Instance "m:x1:x2:x2:x2:x2:x1:x2:x2:x1:x3:5": Length shorter than recommended for a level 1 MOSFET.
Instance "m:x1:x2:x2:x2:x2:x1:x2:x2:x1:x3:5": Width narrower than recommended for a level 1 MOSFET.
Instance "m:x1:x2:x2:x2:x2:x1:x2:x2:x1:x3:4": Length shorter than recommended for a level 1 MOSFET.
Instance "m:x1:x2:x2:x2:x2:x1:x2:x2:x1:x3:4": Width narrower than recommended for a level 1 MOSFET.
Instance "m:x1:x2:x2:x2:x2:x1:x2:x2:x1:x3:3": Length shorter than recommended for a level 1 MOSFET.
Instance "m:x1:x2:x2:x2:x2:x1:x2:x2:x1:x3:3": Width narrower than recommended for a level 1 MOSFET.
Instance "m:x1:x2:x2:x2:x2:x1:x2:x2:x1:x2:5": Length shorter than recommended for a level 1 MOSFET.
Instance "m:x1:x2:x2:x2:x2:x1:x2:x2:x1:x2:5": Width narrower than recommended for a level 1 MOSFET.
Instance "m:x1:x2:x2:x2:x2:x1:x2:x2:x1:x2:4": Length shorter than recommended for a level 1 MOSFET.
Instance "m:x1:x2:x2:x2:x2:x1:x2:x2:x1:x2:4": Width narrower than recommended for a level 1 MOSFET.
Instance "m:x1:x2:x2:x2:x2:x1:x2:x2:x1:x2:3": Length shorter than recommended for a level 1 MOSFET.
Instance "m:x1:x2:x2:x2:x2:x1:x2:x2:x1:x2:3": Width narrower than recommended for a level 1 MOSFET.
Instance "m:x1:x2:x2:x2:x2:x1:x2:x2:x1:x1:5": Length shorter than recommended for a level 1 MOSFET.
Instance "m:x1:x2:x2:x2:x2:x1:x2:x2:x1:x1:5": Width narrower than recommended for a level 1 MOSFET.
Instance "m:x1:x2:x2:x2:x2:x1:x2:x2:x1:x1:4": Length shorter than recommended for a level 1 MOSFET.
Instance "m:x1:x2:x2:x2:x2:x1:x2:x2:x1:x1:4": Width narrower than recommended for a level 1 MOSFET.
Instance "m:x1:x2:x2:x2:x2:x1:x2:x2:x1:x1:3": Length shorter than recommended for a level 1 MOSFET.
Instance "m:x1:x2:x2:x2:x2:x1:x2:x2:x1:x1:3": Width narrower than recommended for a level 1 MOSFET.
Instance "m:x1:x2:x2:x2:x2:x1:x2:x1:x3:5": Length shorter than recommended for a level 1 MOSFET.
Instance "m:x1:x2:x2:x2:x2:x1:x2:x1:x3:5": Width narrower than recommended for a level 1 MOSFET.
Instance "m:x1:x2:x2:x2:x2:x1:x2:x1:x3:4": Length shorter than recommended for a level 1 MOSFET.
Instance "m:x1:x2:x2:x2:x2:x1:x2:x1:x3:4": Width narrower than recommended for a level 1 MOSFET.
Instance "m:x1:x2:x2:x2:x2:x1:x2:x1:x3:3": Length shorter than recommended for a level 1 MOSFET.
Instance "m:x1:x2:x2:x2:x2:x1:x2:x1:x3:3": Width narrower than recommended for a level 1 MOSFET.
Instance "m:x1:x2:x2:x2:x2:x1:x2:x1:x2:x3:5": Length shorter than recommended for a level 1 MOSFET.
Instance "m:x1:x2:x2:x2:x2:x1:x2:x1:x2:x3:5": Width narrower than recommended for a level 1 MOSFET.
Instance "m:x1:x2:x2:x2:x2:x1:x2:x1:x2:x3:4": Length shorter than recommended for a level 1 MOSFET.
Instance "m:x1:x2:x2:x2:x2:x1:x2:x1:x2:x3:4": Width narrower than recommended for a level 1 MOSFET.
Instance "m:x1:x2:x2:x2:x2:x1:x2:x1:x2:x3:3": Length shorter than recommended for a level 1 MOSFET.
Instance "m:x1:x2:x2:x2:x2:x1:x2:x1:x2:x3:3": Width narrower than recommended for a level 1 MOSFET.
Instance "m:x1:x2:x2:x2:x2:x1:x2:x1:x2:x2:5": Length shorter than recommended for a level 1 MOSFET.
Instance "m:x1:x2:x2:x2:x2:x1:x2:x1:x2:x2:5": Width narrower than recommended for a level 1 MOSFET.
Instance "m:x1:x2:x2:x2:x2:x1:x2:x1:x2:x2:4": Length shorter than recommended for a level 1 MOSFET.
Instance "m:x1:x2:x2:x2:x2:x1:x2:x1:x2:x2:4": Width narrower than recommended for a level 1 MOSFET.
Instance "m:x1:x2:x2:x2:x2:x1:x2:x1:x2:x2:3": Length shorter than recommended for a level 1 MOSFET.
Instance "m:x1:x2:x2:x2:x2:x1:x2:x1:x2:x2:3": Width narrower than recommended for a level 1 MOSFET.
Instance "m:x1:x2:x2:x2:x2:x1:x2:x1:x2:x1:5": Length shorter than recommended for a level 1 MOSFET.
Instance "m:x1:x2:x2:x2:x2:x1:x2:x1:x2:x1:5": Width narrower than recommended for a level 1 MOSFET.
Instance "m:x1:x2:x2:x2:x2:x1:x2:x1:x2:x1:4": Length shorter than recommended for a level 1 MOSFET.
Instance "m:x1:x2:x2:x2:x2:x1:x2:x1:x2:x1:4": Width narrower than recommended for a level 1 MOSFET.
Instance "m:x1:x2:x2:x2:x2:x1:x2:x1:x2:x1:3": Length shorter than recommended for a level 1 MOSFET.
Instance "m:x1:x2:x2:x2:x2:x1:x2:x1:x2:x1:3": Width narrower than recommended for a level 1 MOSFET.
Instance "m:x1:x2:x2:x2:x2:x1:x2:x1:x1:x3:5": Length shorter than recommended for a level 1 MOSFET.
Instance "m:x1:x2:x2:x2:x2:x1:x2:x1:x1:x3:5": Width narrower than recommended for a level 1 MOSFET.
Instance "m:x1:x2:x2:x2:x2:x1:x2:x1:x1:x3:4": Length shorter than recommended for a level 1 MOSFET.
Instance "m:x1:x2:x2:x2:x2:x1:x2:x1:x1:x3:4": Width narrower than recommended for a level 1 MOSFET.
Instance "m:x1:x2:x2:x2:x2:x1:x2:x1:x1:x3:3": Length shorter than recommended for a level 1 MOSFET.
Instance "m:x1:x2:x2:x2:x2:x1:x2:x1:x1:x3:3": Width narrower than recommended for a level 1 MOSFET.
Instance "m:x1:x2:x2:x2:x2:x1:x2:x1:x1:x2:5": Length shorter than recommended for a level 1 MOSFET.
Instance "m:x1:x2:x2:x2:x2:x1:x2:x1:x1:x2:5": Width narrower than recommended for a level 1 MOSFET.
Instance "m:x1:x2:x2:x2:x2:x1:x2:x1:x1:x2:4": Length shorter than recommended for a level 1 MOSFET.
Instance "m:x1:x2:x2:x2:x2:x1:x2:x1:x1:x2:4": Width narrower than recommended for a level 1 MOSFET.
Instance "m:x1:x2:x2:x2:x2:x1:x2:x1:x1:x2:3": Length shorter than recommended for a level 1 MOSFET.
Instance "m:x1:x2:x2:x2:x2:x1:x2:x1:x1:x2:3": Width narrower than recommended for a level 1 MOSFET.
Instance "m:x1:x2:x2:x2:x2:x1:x2:x1:x1:x1:5": Length shorter than recommended for a level 1 MOSFET.
Instance "m:x1:x2:x2:x2:x2:x1:x2:x1:x1:x1:5": Width narrower than recommended for a level 1 MOSFET.
Instance "m:x1:x2:x2:x2:x2:x1:x2:x1:x1:x1:4": Length shorter than recommended for a level 1 MOSFET.
Instance "m:x1:x2:x2:x2:x2:x1:x2:x1:x1:x1:4": Width narrower than recommended for a level 1 MOSFET.
Instance "m:x1:x2:x2:x2:x2:x1:x2:x1:x1:x1:3": Length shorter than recommended for a level 1 MOSFET.
Instance "m:x1:x2:x2:x2:x2:x1:x2:x1:x1:x1:3": Width narrower than recommended for a level 1 MOSFET.
Instance "m:x1:x2:x2:x2:x2:x1:x1:x3:5": Length shorter than recommended for a level 1 MOSFET.
Instance "m:x1:x2:x2:x2:x2:x1:x1:x3:5": Width narrower than recommended for a level 1 MOSFET.
Instance "m:x1:x2:x2:x2:x2:x1:x1:x3:4": Length shorter than recommended for a level 1 MOSFET.
Instance "m:x1:x2:x2:x2:x2:x1:x1:x3:4": Width narrower than recommended for a level 1 MOSFET.
Instance "m:x1:x2:x2:x2:x2:x1:x1:x3:3": Length shorter than recommended for a level 1 MOSFET.
Instance "m:x1:x2:x2:x2:x2:x1:x1:x3:3": Width narrower than recommended for a level 1 MOSFET.
Instance "m:x1:x2:x2:x2:x2:x1:x1:x2:x3:5": Length shorter than recommended for a level 1 MOSFET.
Instance "m:x1:x2:x2:x2:x2:x1:x1:x2:x3:5": Width narrower than recommended for a level 1 MOSFET.
Instance "m:x1:x2:x2:x2:x2:x1:x1:x2:x3:4": Length shorter than recommended for a level 1 MOSFET.
Instance "m:x1:x2:x2:x2:x2:x1:x1:x2:x3:4": Width narrower than recommended for a level 1 MOSFET.
Instance "m:x1:x2:x2:x2:x2:x1:x1:x2:x3:3": Length shorter than recommended for a level 1 MOSFET.
Instance "m:x1:x2:x2:x2:x2:x1:x1:x2:x3:3": Width narrower than recommended for a level 1 MOSFET.
Instance "m:x1:x2:x2:x2:x2:x1:x1:x2:x2:x3:5": Length shorter than recommended for a level 1 MOSFET.
Instance "m:x1:x2:x2:x2:x2:x1:x1:x2:x2:x3:5": Width narrower than recommended for a level 1 MOSFET.
Instance "m:x1:x2:x2:x2:x2:x1:x1:x2:x2:x3:4": Length shorter than recommended for a level 1 MOSFET.
Instance "m:x1:x2:x2:x2:x2:x1:x1:x2:x2:x3:4": Width narrower than recommended for a level 1 MOSFET.
Instance "m:x1:x2:x2:x2:x2:x1:x1:x2:x2:x3:3": Length shorter than recommended for a level 1 MOSFET.
Instance "m:x1:x2:x2:x2:x2:x1:x1:x2:x2:x3:3": Width narrower than recommended for a level 1 MOSFET.
Instance "m:x1:x2:x2:x2:x2:x1:x1:x2:x2:x2:5": Length shorter than recommended for a level 1 MOSFET.
Instance "m:x1:x2:x2:x2:x2:x1:x1:x2:x2:x2:5": Width narrower than recommended for a level 1 MOSFET.
Instance "m:x1:x2:x2:x2:x2:x1:x1:x2:x2:x2:4": Length shorter than recommended for a level 1 MOSFET.
Instance "m:x1:x2:x2:x2:x2:x1:x1:x2:x2:x2:4": Width narrower than recommended for a level 1 MOSFET.
Instance "m:x1:x2:x2:x2:x2:x1:x1:x2:x2:x2:3": Length shorter than recommended for a level 1 MOSFET.
Instance "m:x1:x2:x2:x2:x2:x1:x1:x2:x2:x2:3": Width narrower than recommended for a level 1 MOSFET.
Instance "m:x1:x2:x2:x2:x2:x1:x1:x2:x2:x1:5": Length shorter than recommended for a level 1 MOSFET.
Instance "m:x1:x2:x2:x2:x2:x1:x1:x2:x2:x1:5": Width narrower than recommended for a level 1 MOSFET.
Instance "m:x1:x2:x2:x2:x2:x1:x1:x2:x2:x1:4": Length shorter than recommended for a level 1 MOSFET.
Instance "m:x1:x2:x2:x2:x2:x1:x1:x2:x2:x1:4": Width narrower than recommended for a level 1 MOSFET.
Instance "m:x1:x2:x2:x2:x2:x1:x1:x2:x2:x1:3": Length shorter than recommended for a level 1 MOSFET.
Instance "m:x1:x2:x2:x2:x2:x1:x1:x2:x2:x1:3": Width narrower than recommended for a level 1 MOSFET.
Instance "m:x1:x2:x2:x2:x2:x1:x1:x2:x1:x3:5": Length shorter than recommended for a level 1 MOSFET.
Instance "m:x1:x2:x2:x2:x2:x1:x1:x2:x1:x3:5": Width narrower than recommended for a level 1 MOSFET.
Instance "m:x1:x2:x2:x2:x2:x1:x1:x2:x1:x3:4": Length shorter than recommended for a level 1 MOSFET.
Instance "m:x1:x2:x2:x2:x2:x1:x1:x2:x1:x3:4": Width narrower than recommended for a level 1 MOSFET.
Instance "m:x1:x2:x2:x2:x2:x1:x1:x2:x1:x3:3": Length shorter than recommended for a level 1 MOSFET.
Instance "m:x1:x2:x2:x2:x2:x1:x1:x2:x1:x3:3": Width narrower than recommended for a level 1 MOSFET.
Instance "m:x1:x2:x2:x2:x2:x1:x1:x2:x1:x2:5": Length shorter than recommended for a level 1 MOSFET.
Instance "m:x1:x2:x2:x2:x2:x1:x1:x2:x1:x2:5": Width narrower than recommended for a level 1 MOSFET.
Instance "m:x1:x2:x2:x2:x2:x1:x1:x2:x1:x2:4": Length shorter than recommended for a level 1 MOSFET.
Instance "m:x1:x2:x2:x2:x2:x1:x1:x2:x1:x2:4": Width narrower than recommended for a level 1 MOSFET.
Instance "m:x1:x2:x2:x2:x2:x1:x1:x2:x1:x2:3": Length shorter than recommended for a level 1 MOSFET.
Instance "m:x1:x2:x2:x2:x2:x1:x1:x2:x1:x2:3": Width narrower than recommended for a level 1 MOSFET.
Instance "m:x1:x2:x2:x2:x2:x1:x1:x2:x1:x1:5": Length shorter than recommended for a level 1 MOSFET.
Instance "m:x1:x2:x2:x2:x2:x1:x1:x2:x1:x1:5": Width narrower than recommended for a level 1 MOSFET.
Instance "m:x1:x2:x2:x2:x2:x1:x1:x2:x1:x1:4": Length shorter than recommended for a level 1 MOSFET.
Instance "m:x1:x2:x2:x2:x2:x1:x1:x2:x1:x1:4": Width narrower than recommended for a level 1 MOSFET.
Instance "m:x1:x2:x2:x2:x2:x1:x1:x2:x1:x1:3": Length shorter than recommended for a level 1 MOSFET.
Instance "m:x1:x2:x2:x2:x2:x1:x1:x2:x1:x1:3": Width narrower than recommended for a level 1 MOSFET.
Instance "m:x1:x2:x2:x2:x2:x1:x1:x1:x3:5": Length shorter than recommended for a level 1 MOSFET.
Instance "m:x1:x2:x2:x2:x2:x1:x1:x1:x3:5": Width narrower than recommended for a level 1 MOSFET.
Instance "m:x1:x2:x2:x2:x2:x1:x1:x1:x3:4": Length shorter than recommended for a level 1 MOSFET.
Instance "m:x1:x2:x2:x2:x2:x1:x1:x1:x3:4": Width narrower than recommended for a level 1 MOSFET.
Instance "m:x1:x2:x2:x2:x2:x1:x1:x1:x3:3": Length shorter than recommended for a level 1 MOSFET.
Instance "m:x1:x2:x2:x2:x2:x1:x1:x1:x3:3": Width narrower than recommended for a level 1 MOSFET.
Instance "m:x1:x2:x2:x2:x2:x1:x1:x1:x2:x3:5": Length shorter than recommended for a level 1 MOSFET.
Instance "m:x1:x2:x2:x2:x2:x1:x1:x1:x2:x3:5": Width narrower than recommended for a level 1 MOSFET.
Instance "m:x1:x2:x2:x2:x2:x1:x1:x1:x2:x3:4": Length shorter than recommended for a level 1 MOSFET.
Instance "m:x1:x2:x2:x2:x2:x1:x1:x1:x2:x3:4": Width narrower than recommended for a level 1 MOSFET.
Instance "m:x1:x2:x2:x2:x2:x1:x1:x1:x2:x3:3": Length shorter than recommended for a level 1 MOSFET.
Instance "m:x1:x2:x2:x2:x2:x1:x1:x1:x2:x3:3": Width narrower than recommended for a level 1 MOSFET.
Instance "m:x1:x2:x2:x2:x2:x1:x1:x1:x2:x2:5": Length shorter than recommended for a level 1 MOSFET.
Instance "m:x1:x2:x2:x2:x2:x1:x1:x1:x2:x2:5": Width narrower than recommended for a level 1 MOSFET.
Instance "m:x1:x2:x2:x2:x2:x1:x1:x1:x2:x2:4": Length shorter than recommended for a level 1 MOSFET.
Instance "m:x1:x2:x2:x2:x2:x1:x1:x1:x2:x2:4": Width narrower than recommended for a level 1 MOSFET.
Instance "m:x1:x2:x2:x2:x2:x1:x1:x1:x2:x2:3": Length shorter than recommended for a level 1 MOSFET.
Instance "m:x1:x2:x2:x2:x2:x1:x1:x1:x2:x2:3": Width narrower than recommended for a level 1 MOSFET.
Instance "m:x1:x2:x2:x2:x2:x1:x1:x1:x2:x1:5": Length shorter than recommended for a level 1 MOSFET.
Instance "m:x1:x2:x2:x2:x2:x1:x1:x1:x2:x1:5": Width narrower than recommended for a level 1 MOSFET.
Instance "m:x1:x2:x2:x2:x2:x1:x1:x1:x2:x1:4": Length shorter than recommended for a level 1 MOSFET.
Instance "m:x1:x2:x2:x2:x2:x1:x1:x1:x2:x1:4": Width narrower than recommended for a level 1 MOSFET.
Instance "m:x1:x2:x2:x2:x2:x1:x1:x1:x2:x1:3": Length shorter than recommended for a level 1 MOSFET.
Instance "m:x1:x2:x2:x2:x2:x1:x1:x1:x2:x1:3": Width narrower than recommended for a level 1 MOSFET.
Instance "m:x1:x2:x2:x2:x2:x1:x1:x1:x1:x3:5": Length shorter than recommended for a level 1 MOSFET.
Instance "m:x1:x2:x2:x2:x2:x1:x1:x1:x1:x3:5": Width narrower than recommended for a level 1 MOSFET.
Instance "m:x1:x2:x2:x2:x2:x1:x1:x1:x1:x3:4": Length shorter than recommended for a level 1 MOSFET.
Instance "m:x1:x2:x2:x2:x2:x1:x1:x1:x1:x3:4": Width narrower than recommended for a level 1 MOSFET.
Instance "m:x1:x2:x2:x2:x2:x1:x1:x1:x1:x3:3": Length shorter than recommended for a level 1 MOSFET.
Instance "m:x1:x2:x2:x2:x2:x1:x1:x1:x1:x3:3": Width narrower than recommended for a level 1 MOSFET.
Instance "m:x1:x2:x2:x2:x2:x1:x1:x1:x1:x2:5": Length shorter than recommended for a level 1 MOSFET.
Instance "m:x1:x2:x2:x2:x2:x1:x1:x1:x1:x2:5": Width narrower than recommended for a level 1 MOSFET.
Instance "m:x1:x2:x2:x2:x2:x1:x1:x1:x1:x2:4": Length shorter than recommended for a level 1 MOSFET.
Instance "m:x1:x2:x2:x2:x2:x1:x1:x1:x1:x2:4": Width narrower than recommended for a level 1 MOSFET.
Instance "m:x1:x2:x2:x2:x2:x1:x1:x1:x1:x2:3": Length shorter than recommended for a level 1 MOSFET.
Instance "m:x1:x2:x2:x2:x2:x1:x1:x1:x1:x2:3": Width narrower than recommended for a level 1 MOSFET.
Instance "m:x1:x2:x2:x2:x2:x1:x1:x1:x1:x1:5": Length shorter than recommended for a level 1 MOSFET.
Instance "m:x1:x2:x2:x2:x2:x1:x1:x1:x1:x1:5": Width narrower than recommended for a level 1 MOSFET.
Instance "m:x1:x2:x2:x2:x2:x1:x1:x1:x1:x1:4": Length shorter than recommended for a level 1 MOSFET.
Instance "m:x1:x2:x2:x2:x2:x1:x1:x1:x1:x1:4": Width narrower than recommended for a level 1 MOSFET.
Instance "m:x1:x2:x2:x2:x2:x1:x1:x1:x1:x1:3": Length shorter than recommended for a level 1 MOSFET.
Instance "m:x1:x2:x2:x2:x2:x1:x1:x1:x1:x1:3": Width narrower than recommended for a level 1 MOSFET.
Instance "m:x1:x2:x2:x2:x1:x3:5": Length shorter than recommended for a level 1 MOSFET.
Instance "m:x1:x2:x2:x2:x1:x3:5": Width narrower than recommended for a level 1 MOSFET.
Instance "m:x1:x2:x2:x2:x1:x3:4": Length shorter than recommended for a level 1 MOSFET.
Instance "m:x1:x2:x2:x2:x1:x3:4": Width narrower than recommended for a level 1 MOSFET.
Instance "m:x1:x2:x2:x2:x1:x3:3": Length shorter than recommended for a level 1 MOSFET.
Instance "m:x1:x2:x2:x2:x1:x3:3": Width narrower than recommended for a level 1 MOSFET.
Instance "m:x1:x2:x2:x2:x1:x2:x3:5": Length shorter than recommended for a level 1 MOSFET.
Instance "m:x1:x2:x2:x2:x1:x2:x3:5": Width narrower than recommended for a level 1 MOSFET.
Instance "m:x1:x2:x2:x2:x1:x2:x3:4": Length shorter than recommended for a level 1 MOSFET.
Instance "m:x1:x2:x2:x2:x1:x2:x3:4": Width narrower than recommended for a level 1 MOSFET.
Instance "m:x1:x2:x2:x2:x1:x2:x3:3": Length shorter than recommended for a level 1 MOSFET.
Instance "m:x1:x2:x2:x2:x1:x2:x3:3": Width narrower than recommended for a level 1 MOSFET.
Instance "m:x1:x2:x2:x2:x1:x2:x2:x3:5": Length shorter than recommended for a level 1 MOSFET.
Instance "m:x1:x2:x2:x2:x1:x2:x2:x3:5": Width narrower than recommended for a level 1 MOSFET.
Instance "m:x1:x2:x2:x2:x1:x2:x2:x3:4": Length shorter than recommended for a level 1 MOSFET.
Instance "m:x1:x2:x2:x2:x1:x2:x2:x3:4": Width narrower than recommended for a level 1 MOSFET.
Instance "m:x1:x2:x2:x2:x1:x2:x2:x3:3": Length shorter than recommended for a level 1 MOSFET.
Instance "m:x1:x2:x2:x2:x1:x2:x2:x3:3": Width narrower than recommended for a level 1 MOSFET.
Instance "m:x1:x2:x2:x2:x1:x2:x2:x2:x3:5": Length shorter than recommended for a level 1 MOSFET.
Instance "m:x1:x2:x2:x2:x1:x2:x2:x2:x3:5": Width narrower than recommended for a level 1 MOSFET.
Instance "m:x1:x2:x2:x2:x1:x2:x2:x2:x3:4": Length shorter than recommended for a level 1 MOSFET.
Instance "m:x1:x2:x2:x2:x1:x2:x2:x2:x3:4": Width narrower than recommended for a level 1 MOSFET.
Instance "m:x1:x2:x2:x2:x1:x2:x2:x2:x3:3": Length shorter than recommended for a level 1 MOSFET.
Instance "m:x1:x2:x2:x2:x1:x2:x2:x2:x3:3": Width narrower than recommended for a level 1 MOSFET.
Instance "m:x1:x2:x2:x2:x1:x2:x2:x2:x2:x3:5": Length shorter than recommended for a level 1 MOSFET.
Instance "m:x1:x2:x2:x2:x1:x2:x2:x2:x2:x3:5": Width narrower than recommended for a level 1 MOSFET.
Instance "m:x1:x2:x2:x2:x1:x2:x2:x2:x2:x3:4": Length shorter than recommended for a level 1 MOSFET.
Instance "m:x1:x2:x2:x2:x1:x2:x2:x2:x2:x3:4": Width narrower than recommended for a level 1 MOSFET.
Instance "m:x1:x2:x2:x2:x1:x2:x2:x2:x2:x3:3": Length shorter than recommended for a level 1 MOSFET.
Instance "m:x1:x2:x2:x2:x1:x2:x2:x2:x2:x3:3": Width narrower than recommended for a level 1 MOSFET.
Instance "m:x1:x2:x2:x2:x1:x2:x2:x2:x2:x2:5": Length shorter than recommended for a level 1 MOSFET.
Instance "m:x1:x2:x2:x2:x1:x2:x2:x2:x2:x2:5": Width narrower than recommended for a level 1 MOSFET.
Instance "m:x1:x2:x2:x2:x1:x2:x2:x2:x2:x2:4": Length shorter than recommended for a level 1 MOSFET.
Instance "m:x1:x2:x2:x2:x1:x2:x2:x2:x2:x2:4": Width narrower than recommended for a level 1 MOSFET.
Instance "m:x1:x2:x2:x2:x1:x2:x2:x2:x2:x2:3": Length shorter than recommended for a level 1 MOSFET.
Instance "m:x1:x2:x2:x2:x1:x2:x2:x2:x2:x2:3": Width narrower than recommended for a level 1 MOSFET.
Instance "m:x1:x2:x2:x2:x1:x2:x2:x2:x2:x1:5": Length shorter than recommended for a level 1 MOSFET.
Instance "m:x1:x2:x2:x2:x1:x2:x2:x2:x2:x1:5": Width narrower than recommended for a level 1 MOSFET.
Instance "m:x1:x2:x2:x2:x1:x2:x2:x2:x2:x1:4": Length shorter than recommended for a level 1 MOSFET.
Instance "m:x1:x2:x2:x2:x1:x2:x2:x2:x2:x1:4": Width narrower than recommended for a level 1 MOSFET.
Instance "m:x1:x2:x2:x2:x1:x2:x2:x2:x2:x1:3": Length shorter than recommended for a level 1 MOSFET.
Instance "m:x1:x2:x2:x2:x1:x2:x2:x2:x2:x1:3": Width narrower than recommended for a level 1 MOSFET.
Instance "m:x1:x2:x2:x2:x1:x2:x2:x2:x1:x3:5": Length shorter than recommended for a level 1 MOSFET.
Instance "m:x1:x2:x2:x2:x1:x2:x2:x2:x1:x3:5": Width narrower than recommended for a level 1 MOSFET.
Instance "m:x1:x2:x2:x2:x1:x2:x2:x2:x1:x3:4": Length shorter than recommended for a level 1 MOSFET.
Instance "m:x1:x2:x2:x2:x1:x2:x2:x2:x1:x3:4": Width narrower than recommended for a level 1 MOSFET.
Instance "m:x1:x2:x2:x2:x1:x2:x2:x2:x1:x3:3": Length shorter than recommended for a level 1 MOSFET.
Instance "m:x1:x2:x2:x2:x1:x2:x2:x2:x1:x3:3": Width narrower than recommended for a level 1 MOSFET.
Instance "m:x1:x2:x2:x2:x1:x2:x2:x2:x1:x2:5": Length shorter than recommended for a level 1 MOSFET.
Instance "m:x1:x2:x2:x2:x1:x2:x2:x2:x1:x2:5": Width narrower than recommended for a level 1 MOSFET.
Instance "m:x1:x2:x2:x2:x1:x2:x2:x2:x1:x2:4": Length shorter than recommended for a level 1 MOSFET.
Instance "m:x1:x2:x2:x2:x1:x2:x2:x2:x1:x2:4": Width narrower than recommended for a level 1 MOSFET.
Instance "m:x1:x2:x2:x2:x1:x2:x2:x2:x1:x2:3": Length shorter than recommended for a level 1 MOSFET.
Instance "m:x1:x2:x2:x2:x1:x2:x2:x2:x1:x2:3": Width narrower than recommended for a level 1 MOSFET.
Instance "m:x1:x2:x2:x2:x1:x2:x2:x2:x1:x1:5": Length shorter than recommended for a level 1 MOSFET.
Instance "m:x1:x2:x2:x2:x1:x2:x2:x2:x1:x1:5": Width narrower than recommended for a level 1 MOSFET.
Instance "m:x1:x2:x2:x2:x1:x2:x2:x2:x1:x1:4": Length shorter than recommended for a level 1 MOSFET.
Instance "m:x1:x2:x2:x2:x1:x2:x2:x2:x1:x1:4": Width narrower than recommended for a level 1 MOSFET.
Instance "m:x1:x2:x2:x2:x1:x2:x2:x2:x1:x1:3": Length shorter than recommended for a level 1 MOSFET.
Instance "m:x1:x2:x2:x2:x1:x2:x2:x2:x1:x1:3": Width narrower than recommended for a level 1 MOSFET.
Instance "m:x1:x2:x2:x2:x1:x2:x2:x1:x3:5": Length shorter than recommended for a level 1 MOSFET.
Instance "m:x1:x2:x2:x2:x1:x2:x2:x1:x3:5": Width narrower than recommended for a level 1 MOSFET.
Instance "m:x1:x2:x2:x2:x1:x2:x2:x1:x3:4": Length shorter than recommended for a level 1 MOSFET.
Instance "m:x1:x2:x2:x2:x1:x2:x2:x1:x3:4": Width narrower than recommended for a level 1 MOSFET.
Instance "m:x1:x2:x2:x2:x1:x2:x2:x1:x3:3": Length shorter than recommended for a level 1 MOSFET.
Instance "m:x1:x2:x2:x2:x1:x2:x2:x1:x3:3": Width narrower than recommended for a level 1 MOSFET.
Instance "m:x1:x2:x2:x2:x1:x2:x2:x1:x2:x3:5": Length shorter than recommended for a level 1 MOSFET.
Instance "m:x1:x2:x2:x2:x1:x2:x2:x1:x2:x3:5": Width narrower than recommended for a level 1 MOSFET.
Instance "m:x1:x2:x2:x2:x1:x2:x2:x1:x2:x3:4": Length shorter than recommended for a level 1 MOSFET.
Instance "m:x1:x2:x2:x2:x1:x2:x2:x1:x2:x3:4": Width narrower than recommended for a level 1 MOSFET.
Instance "m:x1:x2:x2:x2:x1:x2:x2:x1:x2:x3:3": Length shorter than recommended for a level 1 MOSFET.
Instance "m:x1:x2:x2:x2:x1:x2:x2:x1:x2:x3:3": Width narrower than recommended for a level 1 MOSFET.
Instance "m:x1:x2:x2:x2:x1:x2:x2:x1:x2:x2:5": Length shorter than recommended for a level 1 MOSFET.
Instance "m:x1:x2:x2:x2:x1:x2:x2:x1:x2:x2:5": Width narrower than recommended for a level 1 MOSFET.
Instance "m:x1:x2:x2:x2:x1:x2:x2:x1:x2:x2:4": Length shorter than recommended for a level 1 MOSFET.
Instance "m:x1:x2:x2:x2:x1:x2:x2:x1:x2:x2:4": Width narrower than recommended for a level 1 MOSFET.
Instance "m:x1:x2:x2:x2:x1:x2:x2:x1:x2:x2:3": Length shorter than recommended for a level 1 MOSFET.
Instance "m:x1:x2:x2:x2:x1:x2:x2:x1:x2:x2:3": Width narrower than recommended for a level 1 MOSFET.
Instance "m:x1:x2:x2:x2:x1:x2:x2:x1:x2:x1:5": Length shorter than recommended for a level 1 MOSFET.
Instance "m:x1:x2:x2:x2:x1:x2:x2:x1:x2:x1:5": Width narrower than recommended for a level 1 MOSFET.
Instance "m:x1:x2:x2:x2:x1:x2:x2:x1:x2:x1:4": Length shorter than recommended for a level 1 MOSFET.
Instance "m:x1:x2:x2:x2:x1:x2:x2:x1:x2:x1:4": Width narrower than recommended for a level 1 MOSFET.
Instance "m:x1:x2:x2:x2:x1:x2:x2:x1:x2:x1:3": Length shorter than recommended for a level 1 MOSFET.
Instance "m:x1:x2:x2:x2:x1:x2:x2:x1:x2:x1:3": Width narrower than recommended for a level 1 MOSFET.
Instance "m:x1:x2:x2:x2:x1:x2:x2:x1:x1:x3:5": Length shorter than recommended for a level 1 MOSFET.
Instance "m:x1:x2:x2:x2:x1:x2:x2:x1:x1:x3:5": Width narrower than recommended for a level 1 MOSFET.
Instance "m:x1:x2:x2:x2:x1:x2:x2:x1:x1:x3:4": Length shorter than recommended for a level 1 MOSFET.
Instance "m:x1:x2:x2:x2:x1:x2:x2:x1:x1:x3:4": Width narrower than recommended for a level 1 MOSFET.
Instance "m:x1:x2:x2:x2:x1:x2:x2:x1:x1:x3:3": Length shorter than recommended for a level 1 MOSFET.
Instance "m:x1:x2:x2:x2:x1:x2:x2:x1:x1:x3:3": Width narrower than recommended for a level 1 MOSFET.
Instance "m:x1:x2:x2:x2:x1:x2:x2:x1:x1:x2:5": Length shorter than recommended for a level 1 MOSFET.
Instance "m:x1:x2:x2:x2:x1:x2:x2:x1:x1:x2:5": Width narrower than recommended for a level 1 MOSFET.
Instance "m:x1:x2:x2:x2:x1:x2:x2:x1:x1:x2:4": Length shorter than recommended for a level 1 MOSFET.
Instance "m:x1:x2:x2:x2:x1:x2:x2:x1:x1:x2:4": Width narrower than recommended for a level 1 MOSFET.
Instance "m:x1:x2:x2:x2:x1:x2:x2:x1:x1:x2:3": Length shorter than recommended for a level 1 MOSFET.
Instance "m:x1:x2:x2:x2:x1:x2:x2:x1:x1:x2:3": Width narrower than recommended for a level 1 MOSFET.
Instance "m:x1:x2:x2:x2:x1:x2:x2:x1:x1:x1:5": Length shorter than recommended for a level 1 MOSFET.
Instance "m:x1:x2:x2:x2:x1:x2:x2:x1:x1:x1:5": Width narrower than recommended for a level 1 MOSFET.
Instance "m:x1:x2:x2:x2:x1:x2:x2:x1:x1:x1:4": Length shorter than recommended for a level 1 MOSFET.
Instance "m:x1:x2:x2:x2:x1:x2:x2:x1:x1:x1:4": Width narrower than recommended for a level 1 MOSFET.
Instance "m:x1:x2:x2:x2:x1:x2:x2:x1:x1:x1:3": Length shorter than recommended for a level 1 MOSFET.
Instance "m:x1:x2:x2:x2:x1:x2:x2:x1:x1:x1:3": Width narrower than recommended for a level 1 MOSFET.
Instance "m:x1:x2:x2:x2:x1:x2:x1:x3:5": Length shorter than recommended for a level 1 MOSFET.
Instance "m:x1:x2:x2:x2:x1:x2:x1:x3:5": Width narrower than recommended for a level 1 MOSFET.
Instance "m:x1:x2:x2:x2:x1:x2:x1:x3:4": Length shorter than recommended for a level 1 MOSFET.
Instance "m:x1:x2:x2:x2:x1:x2:x1:x3:4": Width narrower than recommended for a level 1 MOSFET.
Instance "m:x1:x2:x2:x2:x1:x2:x1:x3:3": Length shorter than recommended for a level 1 MOSFET.
Instance "m:x1:x2:x2:x2:x1:x2:x1:x3:3": Width narrower than recommended for a level 1 MOSFET.
Instance "m:x1:x2:x2:x2:x1:x2:x1:x2:x3:5": Length shorter than recommended for a level 1 MOSFET.
Instance "m:x1:x2:x2:x2:x1:x2:x1:x2:x3:5": Width narrower than recommended for a level 1 MOSFET.
Instance "m:x1:x2:x2:x2:x1:x2:x1:x2:x3:4": Length shorter than recommended for a level 1 MOSFET.
Instance "m:x1:x2:x2:x2:x1:x2:x1:x2:x3:4": Width narrower than recommended for a level 1 MOSFET.
Instance "m:x1:x2:x2:x2:x1:x2:x1:x2:x3:3": Length shorter than recommended for a level 1 MOSFET.
Instance "m:x1:x2:x2:x2:x1:x2:x1:x2:x3:3": Width narrower than recommended for a level 1 MOSFET.
Instance "m:x1:x2:x2:x2:x1:x2:x1:x2:x2:x3:5": Length shorter than recommended for a level 1 MOSFET.
Instance "m:x1:x2:x2:x2:x1:x2:x1:x2:x2:x3:5": Width narrower than recommended for a level 1 MOSFET.
Instance "m:x1:x2:x2:x2:x1:x2:x1:x2:x2:x3:4": Length shorter than recommended for a level 1 MOSFET.
Instance "m:x1:x2:x2:x2:x1:x2:x1:x2:x2:x3:4": Width narrower than recommended for a level 1 MOSFET.
Instance "m:x1:x2:x2:x2:x1:x2:x1:x2:x2:x3:3": Length shorter than recommended for a level 1 MOSFET.
Instance "m:x1:x2:x2:x2:x1:x2:x1:x2:x2:x3:3": Width narrower than recommended for a level 1 MOSFET.
Instance "m:x1:x2:x2:x2:x1:x2:x1:x2:x2:x2:5": Length shorter than recommended for a level 1 MOSFET.
Instance "m:x1:x2:x2:x2:x1:x2:x1:x2:x2:x2:5": Width narrower than recommended for a level 1 MOSFET.
Instance "m:x1:x2:x2:x2:x1:x2:x1:x2:x2:x2:4": Length shorter than recommended for a level 1 MOSFET.
Instance "m:x1:x2:x2:x2:x1:x2:x1:x2:x2:x2:4": Width narrower than recommended for a level 1 MOSFET.
Instance "m:x1:x2:x2:x2:x1:x2:x1:x2:x2:x2:3": Length shorter than recommended for a level 1 MOSFET.
Instance "m:x1:x2:x2:x2:x1:x2:x1:x2:x2:x2:3": Width narrower than recommended for a level 1 MOSFET.
Instance "m:x1:x2:x2:x2:x1:x2:x1:x2:x2:x1:5": Length shorter than recommended for a level 1 MOSFET.
Instance "m:x1:x2:x2:x2:x1:x2:x1:x2:x2:x1:5": Width narrower than recommended for a level 1 MOSFET.
Instance "m:x1:x2:x2:x2:x1:x2:x1:x2:x2:x1:4": Length shorter than recommended for a level 1 MOSFET.
Instance "m:x1:x2:x2:x2:x1:x2:x1:x2:x2:x1:4": Width narrower than recommended for a level 1 MOSFET.
Instance "m:x1:x2:x2:x2:x1:x2:x1:x2:x2:x1:3": Length shorter than recommended for a level 1 MOSFET.
Instance "m:x1:x2:x2:x2:x1:x2:x1:x2:x2:x1:3": Width narrower than recommended for a level 1 MOSFET.
Instance "m:x1:x2:x2:x2:x1:x2:x1:x2:x1:x3:5": Length shorter than recommended for a level 1 MOSFET.
Instance "m:x1:x2:x2:x2:x1:x2:x1:x2:x1:x3:5": Width narrower than recommended for a level 1 MOSFET.
Instance "m:x1:x2:x2:x2:x1:x2:x1:x2:x1:x3:4": Length shorter than recommended for a level 1 MOSFET.
Instance "m:x1:x2:x2:x2:x1:x2:x1:x2:x1:x3:4": Width narrower than recommended for a level 1 MOSFET.
Instance "m:x1:x2:x2:x2:x1:x2:x1:x2:x1:x3:3": Length shorter than recommended for a level 1 MOSFET.
Instance "m:x1:x2:x2:x2:x1:x2:x1:x2:x1:x3:3": Width narrower than recommended for a level 1 MOSFET.
Instance "m:x1:x2:x2:x2:x1:x2:x1:x2:x1:x2:5": Length shorter than recommended for a level 1 MOSFET.
Instance "m:x1:x2:x2:x2:x1:x2:x1:x2:x1:x2:5": Width narrower than recommended for a level 1 MOSFET.
Instance "m:x1:x2:x2:x2:x1:x2:x1:x2:x1:x2:4": Length shorter than recommended for a level 1 MOSFET.
Instance "m:x1:x2:x2:x2:x1:x2:x1:x2:x1:x2:4": Width narrower than recommended for a level 1 MOSFET.
Instance "m:x1:x2:x2:x2:x1:x2:x1:x2:x1:x2:3": Length shorter than recommended for a level 1 MOSFET.
Instance "m:x1:x2:x2:x2:x1:x2:x1:x2:x1:x2:3": Width narrower than recommended for a level 1 MOSFET.
Instance "m:x1:x2:x2:x2:x1:x2:x1:x2:x1:x1:5": Length shorter than recommended for a level 1 MOSFET.
Instance "m:x1:x2:x2:x2:x1:x2:x1:x2:x1:x1:5": Width narrower than recommended for a level 1 MOSFET.
Instance "m:x1:x2:x2:x2:x1:x2:x1:x2:x1:x1:4": Length shorter than recommended for a level 1 MOSFET.
Instance "m:x1:x2:x2:x2:x1:x2:x1:x2:x1:x1:4": Width narrower than recommended for a level 1 MOSFET.
Instance "m:x1:x2:x2:x2:x1:x2:x1:x2:x1:x1:3": Length shorter than recommended for a level 1 MOSFET.
Instance "m:x1:x2:x2:x2:x1:x2:x1:x2:x1:x1:3": Width narrower than recommended for a level 1 MOSFET.
Instance "m:x1:x2:x2:x2:x1:x2:x1:x1:x3:5": Length shorter than recommended for a level 1 MOSFET.
Instance "m:x1:x2:x2:x2:x1:x2:x1:x1:x3:5": Width narrower than recommended for a level 1 MOSFET.
Instance "m:x1:x2:x2:x2:x1:x2:x1:x1:x3:4": Length shorter than recommended for a level 1 MOSFET.
Instance "m:x1:x2:x2:x2:x1:x2:x1:x1:x3:4": Width narrower than recommended for a level 1 MOSFET.
Instance "m:x1:x2:x2:x2:x1:x2:x1:x1:x3:3": Length shorter than recommended for a level 1 MOSFET.
Instance "m:x1:x2:x2:x2:x1:x2:x1:x1:x3:3": Width narrower than recommended for a level 1 MOSFET.
Instance "m:x1:x2:x2:x2:x1:x2:x1:x1:x2:x3:5": Length shorter than recommended for a level 1 MOSFET.
Instance "m:x1:x2:x2:x2:x1:x2:x1:x1:x2:x3:5": Width narrower than recommended for a level 1 MOSFET.
Instance "m:x1:x2:x2:x2:x1:x2:x1:x1:x2:x3:4": Length shorter than recommended for a level 1 MOSFET.
Instance "m:x1:x2:x2:x2:x1:x2:x1:x1:x2:x3:4": Width narrower than recommended for a level 1 MOSFET.
Instance "m:x1:x2:x2:x2:x1:x2:x1:x1:x2:x3:3": Length shorter than recommended for a level 1 MOSFET.
Instance "m:x1:x2:x2:x2:x1:x2:x1:x1:x2:x3:3": Width narrower than recommended for a level 1 MOSFET.
Instance "m:x1:x2:x2:x2:x1:x2:x1:x1:x2:x2:5": Length shorter than recommended for a level 1 MOSFET.
Instance "m:x1:x2:x2:x2:x1:x2:x1:x1:x2:x2:5": Width narrower than recommended for a level 1 MOSFET.
Instance "m:x1:x2:x2:x2:x1:x2:x1:x1:x2:x2:4": Length shorter than recommended for a level 1 MOSFET.
Instance "m:x1:x2:x2:x2:x1:x2:x1:x1:x2:x2:4": Width narrower than recommended for a level 1 MOSFET.
Instance "m:x1:x2:x2:x2:x1:x2:x1:x1:x2:x2:3": Length shorter than recommended for a level 1 MOSFET.
Instance "m:x1:x2:x2:x2:x1:x2:x1:x1:x2:x2:3": Width narrower than recommended for a level 1 MOSFET.
Instance "m:x1:x2:x2:x2:x1:x2:x1:x1:x2:x1:5": Length shorter than recommended for a level 1 MOSFET.
Instance "m:x1:x2:x2:x2:x1:x2:x1:x1:x2:x1:5": Width narrower than recommended for a level 1 MOSFET.
Instance "m:x1:x2:x2:x2:x1:x2:x1:x1:x2:x1:4": Length shorter than recommended for a level 1 MOSFET.
Instance "m:x1:x2:x2:x2:x1:x2:x1:x1:x2:x1:4": Width narrower than recommended for a level 1 MOSFET.
Instance "m:x1:x2:x2:x2:x1:x2:x1:x1:x2:x1:3": Length shorter than recommended for a level 1 MOSFET.
Instance "m:x1:x2:x2:x2:x1:x2:x1:x1:x2:x1:3": Width narrower than recommended for a level 1 MOSFET.
Instance "m:x1:x2:x2:x2:x1:x2:x1:x1:x1:x3:5": Length shorter than recommended for a level 1 MOSFET.
Instance "m:x1:x2:x2:x2:x1:x2:x1:x1:x1:x3:5": Width narrower than recommended for a level 1 MOSFET.
Instance "m:x1:x2:x2:x2:x1:x2:x1:x1:x1:x3:4": Length shorter than recommended for a level 1 MOSFET.
Instance "m:x1:x2:x2:x2:x1:x2:x1:x1:x1:x3:4": Width narrower than recommended for a level 1 MOSFET.
Instance "m:x1:x2:x2:x2:x1:x2:x1:x1:x1:x3:3": Length shorter than recommended for a level 1 MOSFET.
Instance "m:x1:x2:x2:x2:x1:x2:x1:x1:x1:x3:3": Width narrower than recommended for a level 1 MOSFET.
Instance "m:x1:x2:x2:x2:x1:x2:x1:x1:x1:x2:5": Length shorter than recommended for a level 1 MOSFET.
Instance "m:x1:x2:x2:x2:x1:x2:x1:x1:x1:x2:5": Width narrower than recommended for a level 1 MOSFET.
Instance "m:x1:x2:x2:x2:x1:x2:x1:x1:x1:x2:4": Length shorter than recommended for a level 1 MOSFET.
Instance "m:x1:x2:x2:x2:x1:x2:x1:x1:x1:x2:4": Width narrower than recommended for a level 1 MOSFET.
Instance "m:x1:x2:x2:x2:x1:x2:x1:x1:x1:x2:3": Length shorter than recommended for a level 1 MOSFET.
Instance "m:x1:x2:x2:x2:x1:x2:x1:x1:x1:x2:3": Width narrower than recommended for a level 1 MOSFET.
Instance "m:x1:x2:x2:x2:x1:x2:x1:x1:x1:x1:5": Length shorter than recommended for a level 1 MOSFET.
Instance "m:x1:x2:x2:x2:x1:x2:x1:x1:x1:x1:5": Width narrower than recommended for a level 1 MOSFET.
Instance "m:x1:x2:x2:x2:x1:x2:x1:x1:x1:x1:4": Length shorter than recommended for a level 1 MOSFET.
Instance "m:x1:x2:x2:x2:x1:x2:x1:x1:x1:x1:4": Width narrower than recommended for a level 1 MOSFET.
Instance "m:x1:x2:x2:x2:x1:x2:x1:x1:x1:x1:3": Length shorter than recommended for a level 1 MOSFET.
Instance "m:x1:x2:x2:x2:x1:x2:x1:x1:x1:x1:3": Width narrower than recommended for a level 1 MOSFET.
Instance "m:x1:x2:x2:x2:x1:x1:x3:5": Length shorter than recommended for a level 1 MOSFET.
Instance "m:x1:x2:x2:x2:x1:x1:x3:5": Width narrower than recommended for a level 1 MOSFET.
Instance "m:x1:x2:x2:x2:x1:x1:x3:4": Length shorter than recommended for a level 1 MOSFET.
Instance "m:x1:x2:x2:x2:x1:x1:x3:4": Width narrower than recommended for a level 1 MOSFET.
Instance "m:x1:x2:x2:x2:x1:x1:x3:3": Length shorter than recommended for a level 1 MOSFET.
Instance "m:x1:x2:x2:x2:x1:x1:x3:3": Width narrower than recommended for a level 1 MOSFET.
Instance "m:x1:x2:x2:x2:x1:x1:x2:x3:5": Length shorter than recommended for a level 1 MOSFET.
Instance "m:x1:x2:x2:x2:x1:x1:x2:x3:5": Width narrower than recommended for a level 1 MOSFET.
Instance "m:x1:x2:x2:x2:x1:x1:x2:x3:4": Length shorter than recommended for a level 1 MOSFET.
Instance "m:x1:x2:x2:x2:x1:x1:x2:x3:4": Width narrower than recommended for a level 1 MOSFET.
Instance "m:x1:x2:x2:x2:x1:x1:x2:x3:3": Length shorter than recommended for a level 1 MOSFET.
Instance "m:x1:x2:x2:x2:x1:x1:x2:x3:3": Width narrower than recommended for a level 1 MOSFET.
Instance "m:x1:x2:x2:x2:x1:x1:x2:x2:x3:5": Length shorter than recommended for a level 1 MOSFET.
Instance "m:x1:x2:x2:x2:x1:x1:x2:x2:x3:5": Width narrower than recommended for a level 1 MOSFET.
Instance "m:x1:x2:x2:x2:x1:x1:x2:x2:x3:4": Length shorter than recommended for a level 1 MOSFET.
Instance "m:x1:x2:x2:x2:x1:x1:x2:x2:x3:4": Width narrower than recommended for a level 1 MOSFET.
Instance "m:x1:x2:x2:x2:x1:x1:x2:x2:x3:3": Length shorter than recommended for a level 1 MOSFET.
Instance "m:x1:x2:x2:x2:x1:x1:x2:x2:x3:3": Width narrower than recommended for a level 1 MOSFET.
Instance "m:x1:x2:x2:x2:x1:x1:x2:x2:x2:x3:5": Length shorter than recommended for a level 1 MOSFET.
Instance "m:x1:x2:x2:x2:x1:x1:x2:x2:x2:x3:5": Width narrower than recommended for a level 1 MOSFET.
Instance "m:x1:x2:x2:x2:x1:x1:x2:x2:x2:x3:4": Length shorter than recommended for a level 1 MOSFET.
Instance "m:x1:x2:x2:x2:x1:x1:x2:x2:x2:x3:4": Width narrower than recommended for a level 1 MOSFET.
Instance "m:x1:x2:x2:x2:x1:x1:x2:x2:x2:x3:3": Length shorter than recommended for a level 1 MOSFET.
Instance "m:x1:x2:x2:x2:x1:x1:x2:x2:x2:x3:3": Width narrower than recommended for a level 1 MOSFET.
Instance "m:x1:x2:x2:x2:x1:x1:x2:x2:x2:x2:5": Length shorter than recommended for a level 1 MOSFET.
Instance "m:x1:x2:x2:x2:x1:x1:x2:x2:x2:x2:5": Width narrower than recommended for a level 1 MOSFET.
Instance "m:x1:x2:x2:x2:x1:x1:x2:x2:x2:x2:4": Length shorter than recommended for a level 1 MOSFET.
Instance "m:x1:x2:x2:x2:x1:x1:x2:x2:x2:x2:4": Width narrower than recommended for a level 1 MOSFET.
Instance "m:x1:x2:x2:x2:x1:x1:x2:x2:x2:x2:3": Length shorter than recommended for a level 1 MOSFET.
Instance "m:x1:x2:x2:x2:x1:x1:x2:x2:x2:x2:3": Width narrower than recommended for a level 1 MOSFET.
Instance "m:x1:x2:x2:x2:x1:x1:x2:x2:x2:x1:5": Length shorter than recommended for a level 1 MOSFET.
Instance "m:x1:x2:x2:x2:x1:x1:x2:x2:x2:x1:5": Width narrower than recommended for a level 1 MOSFET.
Instance "m:x1:x2:x2:x2:x1:x1:x2:x2:x2:x1:4": Length shorter than recommended for a level 1 MOSFET.
Instance "m:x1:x2:x2:x2:x1:x1:x2:x2:x2:x1:4": Width narrower than recommended for a level 1 MOSFET.
Instance "m:x1:x2:x2:x2:x1:x1:x2:x2:x2:x1:3": Length shorter than recommended for a level 1 MOSFET.
Instance "m:x1:x2:x2:x2:x1:x1:x2:x2:x2:x1:3": Width narrower than recommended for a level 1 MOSFET.
Instance "m:x1:x2:x2:x2:x1:x1:x2:x2:x1:x3:5": Length shorter than recommended for a level 1 MOSFET.
Instance "m:x1:x2:x2:x2:x1:x1:x2:x2:x1:x3:5": Width narrower than recommended for a level 1 MOSFET.
Instance "m:x1:x2:x2:x2:x1:x1:x2:x2:x1:x3:4": Length shorter than recommended for a level 1 MOSFET.
Instance "m:x1:x2:x2:x2:x1:x1:x2:x2:x1:x3:4": Width narrower than recommended for a level 1 MOSFET.
Instance "m:x1:x2:x2:x2:x1:x1:x2:x2:x1:x3:3": Length shorter than recommended for a level 1 MOSFET.
Instance "m:x1:x2:x2:x2:x1:x1:x2:x2:x1:x3:3": Width narrower than recommended for a level 1 MOSFET.
Instance "m:x1:x2:x2:x2:x1:x1:x2:x2:x1:x2:5": Length shorter than recommended for a level 1 MOSFET.
Instance "m:x1:x2:x2:x2:x1:x1:x2:x2:x1:x2:5": Width narrower than recommended for a level 1 MOSFET.
Instance "m:x1:x2:x2:x2:x1:x1:x2:x2:x1:x2:4": Length shorter than recommended for a level 1 MOSFET.
Instance "m:x1:x2:x2:x2:x1:x1:x2:x2:x1:x2:4": Width narrower than recommended for a level 1 MOSFET.
Instance "m:x1:x2:x2:x2:x1:x1:x2:x2:x1:x2:3": Length shorter than recommended for a level 1 MOSFET.
Instance "m:x1:x2:x2:x2:x1:x1:x2:x2:x1:x2:3": Width narrower than recommended for a level 1 MOSFET.
Instance "m:x1:x2:x2:x2:x1:x1:x2:x2:x1:x1:5": Length shorter than recommended for a level 1 MOSFET.
Instance "m:x1:x2:x2:x2:x1:x1:x2:x2:x1:x1:5": Width narrower than recommended for a level 1 MOSFET.
Instance "m:x1:x2:x2:x2:x1:x1:x2:x2:x1:x1:4": Length shorter than recommended for a level 1 MOSFET.
Instance "m:x1:x2:x2:x2:x1:x1:x2:x2:x1:x1:4": Width narrower than recommended for a level 1 MOSFET.
Instance "m:x1:x2:x2:x2:x1:x1:x2:x2:x1:x1:3": Length shorter than recommended for a level 1 MOSFET.
Instance "m:x1:x2:x2:x2:x1:x1:x2:x2:x1:x1:3": Width narrower than recommended for a level 1 MOSFET.
Instance "m:x1:x2:x2:x2:x1:x1:x2:x1:x3:5": Length shorter than recommended for a level 1 MOSFET.
Instance "m:x1:x2:x2:x2:x1:x1:x2:x1:x3:5": Width narrower than recommended for a level 1 MOSFET.
Instance "m:x1:x2:x2:x2:x1:x1:x2:x1:x3:4": Length shorter than recommended for a level 1 MOSFET.
Instance "m:x1:x2:x2:x2:x1:x1:x2:x1:x3:4": Width narrower than recommended for a level 1 MOSFET.
Instance "m:x1:x2:x2:x2:x1:x1:x2:x1:x3:3": Length shorter than recommended for a level 1 MOSFET.
Instance "m:x1:x2:x2:x2:x1:x1:x2:x1:x3:3": Width narrower than recommended for a level 1 MOSFET.
Instance "m:x1:x2:x2:x2:x1:x1:x2:x1:x2:x3:5": Length shorter than recommended for a level 1 MOSFET.
Instance "m:x1:x2:x2:x2:x1:x1:x2:x1:x2:x3:5": Width narrower than recommended for a level 1 MOSFET.
Instance "m:x1:x2:x2:x2:x1:x1:x2:x1:x2:x3:4": Length shorter than recommended for a level 1 MOSFET.
Instance "m:x1:x2:x2:x2:x1:x1:x2:x1:x2:x3:4": Width narrower than recommended for a level 1 MOSFET.
Instance "m:x1:x2:x2:x2:x1:x1:x2:x1:x2:x3:3": Length shorter than recommended for a level 1 MOSFET.
Instance "m:x1:x2:x2:x2:x1:x1:x2:x1:x2:x3:3": Width narrower than recommended for a level 1 MOSFET.
Instance "m:x1:x2:x2:x2:x1:x1:x2:x1:x2:x2:5": Length shorter than recommended for a level 1 MOSFET.
Instance "m:x1:x2:x2:x2:x1:x1:x2:x1:x2:x2:5": Width narrower than recommended for a level 1 MOSFET.
Instance "m:x1:x2:x2:x2:x1:x1:x2:x1:x2:x2:4": Length shorter than recommended for a level 1 MOSFET.
Instance "m:x1:x2:x2:x2:x1:x1:x2:x1:x2:x2:4": Width narrower than recommended for a level 1 MOSFET.
Instance "m:x1:x2:x2:x2:x1:x1:x2:x1:x2:x2:3": Length shorter than recommended for a level 1 MOSFET.
Instance "m:x1:x2:x2:x2:x1:x1:x2:x1:x2:x2:3": Width narrower than recommended for a level 1 MOSFET.
Instance "m:x1:x2:x2:x2:x1:x1:x2:x1:x2:x1:5": Length shorter than recommended for a level 1 MOSFET.
Instance "m:x1:x2:x2:x2:x1:x1:x2:x1:x2:x1:5": Width narrower than recommended for a level 1 MOSFET.
Instance "m:x1:x2:x2:x2:x1:x1:x2:x1:x2:x1:4": Length shorter than recommended for a level 1 MOSFET.
Instance "m:x1:x2:x2:x2:x1:x1:x2:x1:x2:x1:4": Width narrower than recommended for a level 1 MOSFET.
Instance "m:x1:x2:x2:x2:x1:x1:x2:x1:x2:x1:3": Length shorter than recommended for a level 1 MOSFET.
Instance "m:x1:x2:x2:x2:x1:x1:x2:x1:x2:x1:3": Width narrower than recommended for a level 1 MOSFET.
Instance "m:x1:x2:x2:x2:x1:x1:x2:x1:x1:x3:5": Length shorter than recommended for a level 1 MOSFET.
Instance "m:x1:x2:x2:x2:x1:x1:x2:x1:x1:x3:5": Width narrower than recommended for a level 1 MOSFET.
Instance "m:x1:x2:x2:x2:x1:x1:x2:x1:x1:x3:4": Length shorter than recommended for a level 1 MOSFET.
Instance "m:x1:x2:x2:x2:x1:x1:x2:x1:x1:x3:4": Width narrower than recommended for a level 1 MOSFET.
Instance "m:x1:x2:x2:x2:x1:x1:x2:x1:x1:x3:3": Length shorter than recommended for a level 1 MOSFET.
Instance "m:x1:x2:x2:x2:x1:x1:x2:x1:x1:x3:3": Width narrower than recommended for a level 1 MOSFET.
Instance "m:x1:x2:x2:x2:x1:x1:x2:x1:x1:x2:5": Length shorter than recommended for a level 1 MOSFET.
Instance "m:x1:x2:x2:x2:x1:x1:x2:x1:x1:x2:5": Width narrower than recommended for a level 1 MOSFET.
Instance "m:x1:x2:x2:x2:x1:x1:x2:x1:x1:x2:4": Length shorter than recommended for a level 1 MOSFET.
Instance "m:x1:x2:x2:x2:x1:x1:x2:x1:x1:x2:4": Width narrower than recommended for a level 1 MOSFET.
Instance "m:x1:x2:x2:x2:x1:x1:x2:x1:x1:x2:3": Length shorter than recommended for a level 1 MOSFET.
Instance "m:x1:x2:x2:x2:x1:x1:x2:x1:x1:x2:3": Width narrower than recommended for a level 1 MOSFET.
Instance "m:x1:x2:x2:x2:x1:x1:x2:x1:x1:x1:5": Length shorter than recommended for a level 1 MOSFET.
Instance "m:x1:x2:x2:x2:x1:x1:x2:x1:x1:x1:5": Width narrower than recommended for a level 1 MOSFET.
Instance "m:x1:x2:x2:x2:x1:x1:x2:x1:x1:x1:4": Length shorter than recommended for a level 1 MOSFET.
Instance "m:x1:x2:x2:x2:x1:x1:x2:x1:x1:x1:4": Width narrower than recommended for a level 1 MOSFET.
Instance "m:x1:x2:x2:x2:x1:x1:x2:x1:x1:x1:3": Length shorter than recommended for a level 1 MOSFET.
Instance "m:x1:x2:x2:x2:x1:x1:x2:x1:x1:x1:3": Width narrower than recommended for a level 1 MOSFET.
Instance "m:x1:x2:x2:x2:x1:x1:x1:x3:5": Length shorter than recommended for a level 1 MOSFET.
Instance "m:x1:x2:x2:x2:x1:x1:x1:x3:5": Width narrower than recommended for a level 1 MOSFET.
Instance "m:x1:x2:x2:x2:x1:x1:x1:x3:4": Length shorter than recommended for a level 1 MOSFET.
Instance "m:x1:x2:x2:x2:x1:x1:x1:x3:4": Width narrower than recommended for a level 1 MOSFET.
Instance "m:x1:x2:x2:x2:x1:x1:x1:x3:3": Length shorter than recommended for a level 1 MOSFET.
Instance "m:x1:x2:x2:x2:x1:x1:x1:x3:3": Width narrower than recommended for a level 1 MOSFET.
Instance "m:x1:x2:x2:x2:x1:x1:x1:x2:x3:5": Length shorter than recommended for a level 1 MOSFET.
Instance "m:x1:x2:x2:x2:x1:x1:x1:x2:x3:5": Width narrower than recommended for a level 1 MOSFET.
Instance "m:x1:x2:x2:x2:x1:x1:x1:x2:x3:4": Length shorter than recommended for a level 1 MOSFET.
Instance "m:x1:x2:x2:x2:x1:x1:x1:x2:x3:4": Width narrower than recommended for a level 1 MOSFET.
Instance "m:x1:x2:x2:x2:x1:x1:x1:x2:x3:3": Length shorter than recommended for a level 1 MOSFET.
Instance "m:x1:x2:x2:x2:x1:x1:x1:x2:x3:3": Width narrower than recommended for a level 1 MOSFET.
Instance "m:x1:x2:x2:x2:x1:x1:x1:x2:x2:x3:5": Length shorter than recommended for a level 1 MOSFET.
Instance "m:x1:x2:x2:x2:x1:x1:x1:x2:x2:x3:5": Width narrower than recommended for a level 1 MOSFET.
Instance "m:x1:x2:x2:x2:x1:x1:x1:x2:x2:x3:4": Length shorter than recommended for a level 1 MOSFET.
Instance "m:x1:x2:x2:x2:x1:x1:x1:x2:x2:x3:4": Width narrower than recommended for a level 1 MOSFET.
Instance "m:x1:x2:x2:x2:x1:x1:x1:x2:x2:x3:3": Length shorter than recommended for a level 1 MOSFET.
Instance "m:x1:x2:x2:x2:x1:x1:x1:x2:x2:x3:3": Width narrower than recommended for a level 1 MOSFET.
Instance "m:x1:x2:x2:x2:x1:x1:x1:x2:x2:x2:5": Length shorter than recommended for a level 1 MOSFET.
Instance "m:x1:x2:x2:x2:x1:x1:x1:x2:x2:x2:5": Width narrower than recommended for a level 1 MOSFET.
Instance "m:x1:x2:x2:x2:x1:x1:x1:x2:x2:x2:4": Length shorter than recommended for a level 1 MOSFET.
Instance "m:x1:x2:x2:x2:x1:x1:x1:x2:x2:x2:4": Width narrower than recommended for a level 1 MOSFET.
Instance "m:x1:x2:x2:x2:x1:x1:x1:x2:x2:x2:3": Length shorter than recommended for a level 1 MOSFET.
Instance "m:x1:x2:x2:x2:x1:x1:x1:x2:x2:x2:3": Width narrower than recommended for a level 1 MOSFET.
Instance "m:x1:x2:x2:x2:x1:x1:x1:x2:x2:x1:5": Length shorter than recommended for a level 1 MOSFET.
Instance "m:x1:x2:x2:x2:x1:x1:x1:x2:x2:x1:5": Width narrower than recommended for a level 1 MOSFET.
Instance "m:x1:x2:x2:x2:x1:x1:x1:x2:x2:x1:4": Length shorter than recommended for a level 1 MOSFET.
Instance "m:x1:x2:x2:x2:x1:x1:x1:x2:x2:x1:4": Width narrower than recommended for a level 1 MOSFET.
Instance "m:x1:x2:x2:x2:x1:x1:x1:x2:x2:x1:3": Length shorter than recommended for a level 1 MOSFET.
Instance "m:x1:x2:x2:x2:x1:x1:x1:x2:x2:x1:3": Width narrower than recommended for a level 1 MOSFET.
Instance "m:x1:x2:x2:x2:x1:x1:x1:x2:x1:x3:5": Length shorter than recommended for a level 1 MOSFET.
Instance "m:x1:x2:x2:x2:x1:x1:x1:x2:x1:x3:5": Width narrower than recommended for a level 1 MOSFET.
Instance "m:x1:x2:x2:x2:x1:x1:x1:x2:x1:x3:4": Length shorter than recommended for a level 1 MOSFET.
Instance "m:x1:x2:x2:x2:x1:x1:x1:x2:x1:x3:4": Width narrower than recommended for a level 1 MOSFET.
Instance "m:x1:x2:x2:x2:x1:x1:x1:x2:x1:x3:3": Length shorter than recommended for a level 1 MOSFET.
Instance "m:x1:x2:x2:x2:x1:x1:x1:x2:x1:x3:3": Width narrower than recommended for a level 1 MOSFET.
Instance "m:x1:x2:x2:x2:x1:x1:x1:x2:x1:x2:5": Length shorter than recommended for a level 1 MOSFET.
Instance "m:x1:x2:x2:x2:x1:x1:x1:x2:x1:x2:5": Width narrower than recommended for a level 1 MOSFET.
Instance "m:x1:x2:x2:x2:x1:x1:x1:x2:x1:x2:4": Length shorter than recommended for a level 1 MOSFET.
Instance "m:x1:x2:x2:x2:x1:x1:x1:x2:x1:x2:4": Width narrower than recommended for a level 1 MOSFET.
Instance "m:x1:x2:x2:x2:x1:x1:x1:x2:x1:x2:3": Length shorter than recommended for a level 1 MOSFET.
Instance "m:x1:x2:x2:x2:x1:x1:x1:x2:x1:x2:3": Width narrower than recommended for a level 1 MOSFET.
Instance "m:x1:x2:x2:x2:x1:x1:x1:x2:x1:x1:5": Length shorter than recommended for a level 1 MOSFET.
Instance "m:x1:x2:x2:x2:x1:x1:x1:x2:x1:x1:5": Width narrower than recommended for a level 1 MOSFET.
Instance "m:x1:x2:x2:x2:x1:x1:x1:x2:x1:x1:4": Length shorter than recommended for a level 1 MOSFET.
Instance "m:x1:x2:x2:x2:x1:x1:x1:x2:x1:x1:4": Width narrower than recommended for a level 1 MOSFET.
Instance "m:x1:x2:x2:x2:x1:x1:x1:x2:x1:x1:3": Length shorter than recommended for a level 1 MOSFET.
Instance "m:x1:x2:x2:x2:x1:x1:x1:x2:x1:x1:3": Width narrower than recommended for a level 1 MOSFET.
Instance "m:x1:x2:x2:x2:x1:x1:x1:x1:x3:5": Length shorter than recommended for a level 1 MOSFET.
Instance "m:x1:x2:x2:x2:x1:x1:x1:x1:x3:5": Width narrower than recommended for a level 1 MOSFET.
Instance "m:x1:x2:x2:x2:x1:x1:x1:x1:x3:4": Length shorter than recommended for a level 1 MOSFET.
Instance "m:x1:x2:x2:x2:x1:x1:x1:x1:x3:4": Width narrower than recommended for a level 1 MOSFET.
Instance "m:x1:x2:x2:x2:x1:x1:x1:x1:x3:3": Length shorter than recommended for a level 1 MOSFET.
Instance "m:x1:x2:x2:x2:x1:x1:x1:x1:x3:3": Width narrower than recommended for a level 1 MOSFET.
Instance "m:x1:x2:x2:x2:x1:x1:x1:x1:x2:x3:5": Length shorter than recommended for a level 1 MOSFET.
Instance "m:x1:x2:x2:x2:x1:x1:x1:x1:x2:x3:5": Width narrower than recommended for a level 1 MOSFET.
Instance "m:x1:x2:x2:x2:x1:x1:x1:x1:x2:x3:4": Length shorter than recommended for a level 1 MOSFET.
Instance "m:x1:x2:x2:x2:x1:x1:x1:x1:x2:x3:4": Width narrower than recommended for a level 1 MOSFET.
Instance "m:x1:x2:x2:x2:x1:x1:x1:x1:x2:x3:3": Length shorter than recommended for a level 1 MOSFET.
Instance "m:x1:x2:x2:x2:x1:x1:x1:x1:x2:x3:3": Width narrower than recommended for a level 1 MOSFET.
Instance "m:x1:x2:x2:x2:x1:x1:x1:x1:x2:x2:5": Length shorter than recommended for a level 1 MOSFET.
Instance "m:x1:x2:x2:x2:x1:x1:x1:x1:x2:x2:5": Width narrower than recommended for a level 1 MOSFET.
Instance "m:x1:x2:x2:x2:x1:x1:x1:x1:x2:x2:4": Length shorter than recommended for a level 1 MOSFET.
Instance "m:x1:x2:x2:x2:x1:x1:x1:x1:x2:x2:4": Width narrower than recommended for a level 1 MOSFET.
Instance "m:x1:x2:x2:x2:x1:x1:x1:x1:x2:x2:3": Length shorter than recommended for a level 1 MOSFET.
Instance "m:x1:x2:x2:x2:x1:x1:x1:x1:x2:x2:3": Width narrower than recommended for a level 1 MOSFET.
Instance "m:x1:x2:x2:x2:x1:x1:x1:x1:x2:x1:5": Length shorter than recommended for a level 1 MOSFET.
Instance "m:x1:x2:x2:x2:x1:x1:x1:x1:x2:x1:5": Width narrower than recommended for a level 1 MOSFET.
Instance "m:x1:x2:x2:x2:x1:x1:x1:x1:x2:x1:4": Length shorter than recommended for a level 1 MOSFET.
Instance "m:x1:x2:x2:x2:x1:x1:x1:x1:x2:x1:4": Width narrower than recommended for a level 1 MOSFET.
Instance "m:x1:x2:x2:x2:x1:x1:x1:x1:x2:x1:3": Length shorter than recommended for a level 1 MOSFET.
Instance "m:x1:x2:x2:x2:x1:x1:x1:x1:x2:x1:3": Width narrower than recommended for a level 1 MOSFET.
Instance "m:x1:x2:x2:x2:x1:x1:x1:x1:x1:x3:5": Length shorter than recommended for a level 1 MOSFET.
Instance "m:x1:x2:x2:x2:x1:x1:x1:x1:x1:x3:5": Width narrower than recommended for a level 1 MOSFET.
Instance "m:x1:x2:x2:x2:x1:x1:x1:x1:x1:x3:4": Length shorter than recommended for a level 1 MOSFET.
Instance "m:x1:x2:x2:x2:x1:x1:x1:x1:x1:x3:4": Width narrower than recommended for a level 1 MOSFET.
Instance "m:x1:x2:x2:x2:x1:x1:x1:x1:x1:x3:3": Length shorter than recommended for a level 1 MOSFET.
Instance "m:x1:x2:x2:x2:x1:x1:x1:x1:x1:x3:3": Width narrower than recommended for a level 1 MOSFET.
Instance "m:x1:x2:x2:x2:x1:x1:x1:x1:x1:x2:5": Length shorter than recommended for a level 1 MOSFET.
Instance "m:x1:x2:x2:x2:x1:x1:x1:x1:x1:x2:5": Width narrower than recommended for a level 1 MOSFET.
Instance "m:x1:x2:x2:x2:x1:x1:x1:x1:x1:x2:4": Length shorter than recommended for a level 1 MOSFET.
Instance "m:x1:x2:x2:x2:x1:x1:x1:x1:x1:x2:4": Width narrower than recommended for a level 1 MOSFET.
Instance "m:x1:x2:x2:x2:x1:x1:x1:x1:x1:x2:3": Length shorter than recommended for a level 1 MOSFET.
Instance "m:x1:x2:x2:x2:x1:x1:x1:x1:x1:x2:3": Width narrower than recommended for a level 1 MOSFET.
Instance "m:x1:x2:x2:x2:x1:x1:x1:x1:x1:x1:5": Length shorter than recommended for a level 1 MOSFET.
Instance "m:x1:x2:x2:x2:x1:x1:x1:x1:x1:x1:5": Width narrower than recommended for a level 1 MOSFET.
Instance "m:x1:x2:x2:x2:x1:x1:x1:x1:x1:x1:4": Length shorter than recommended for a level 1 MOSFET.
Instance "m:x1:x2:x2:x2:x1:x1:x1:x1:x1:x1:4": Width narrower than recommended for a level 1 MOSFET.
Instance "m:x1:x2:x2:x2:x1:x1:x1:x1:x1:x1:3": Length shorter than recommended for a level 1 MOSFET.
Instance "m:x1:x2:x2:x2:x1:x1:x1:x1:x1:x1:3": Width narrower than recommended for a level 1 MOSFET.
Instance "m:x1:x2:x2:x1:x3:5": Length shorter than recommended for a level 1 MOSFET.
Instance "m:x1:x2:x2:x1:x3:5": Width narrower than recommended for a level 1 MOSFET.
Instance "m:x1:x2:x2:x1:x3:4": Length shorter than recommended for a level 1 MOSFET.
Instance "m:x1:x2:x2:x1:x3:4": Width narrower than recommended for a level 1 MOSFET.
Instance "m:x1:x2:x2:x1:x3:3": Length shorter than recommended for a level 1 MOSFET.
Instance "m:x1:x2:x2:x1:x3:3": Width narrower than recommended for a level 1 MOSFET.
Instance "m:x1:x2:x2:x1:x2:x3:5": Length shorter than recommended for a level 1 MOSFET.
Instance "m:x1:x2:x2:x1:x2:x3:5": Width narrower than recommended for a level 1 MOSFET.
Instance "m:x1:x2:x2:x1:x2:x3:4": Length shorter than recommended for a level 1 MOSFET.
Instance "m:x1:x2:x2:x1:x2:x3:4": Width narrower than recommended for a level 1 MOSFET.
Instance "m:x1:x2:x2:x1:x2:x3:3": Length shorter than recommended for a level 1 MOSFET.
Instance "m:x1:x2:x2:x1:x2:x3:3": Width narrower than recommended for a level 1 MOSFET.
Instance "m:x1:x2:x2:x1:x2:x2:x3:5": Length shorter than recommended for a level 1 MOSFET.
Instance "m:x1:x2:x2:x1:x2:x2:x3:5": Width narrower than recommended for a level 1 MOSFET.
Instance "m:x1:x2:x2:x1:x2:x2:x3:4": Length shorter than recommended for a level 1 MOSFET.
Instance "m:x1:x2:x2:x1:x2:x2:x3:4": Width narrower than recommended for a level 1 MOSFET.
Instance "m:x1:x2:x2:x1:x2:x2:x3:3": Length shorter than recommended for a level 1 MOSFET.
Instance "m:x1:x2:x2:x1:x2:x2:x3:3": Width narrower than recommended for a level 1 MOSFET.
Instance "m:x1:x2:x2:x1:x2:x2:x2:x3:5": Length shorter than recommended for a level 1 MOSFET.
Instance "m:x1:x2:x2:x1:x2:x2:x2:x3:5": Width narrower than recommended for a level 1 MOSFET.
Instance "m:x1:x2:x2:x1:x2:x2:x2:x3:4": Length shorter than recommended for a level 1 MOSFET.
Instance "m:x1:x2:x2:x1:x2:x2:x2:x3:4": Width narrower than recommended for a level 1 MOSFET.
Instance "m:x1:x2:x2:x1:x2:x2:x2:x3:3": Length shorter than recommended for a level 1 MOSFET.
Instance "m:x1:x2:x2:x1:x2:x2:x2:x3:3": Width narrower than recommended for a level 1 MOSFET.
Instance "m:x1:x2:x2:x1:x2:x2:x2:x2:x3:5": Length shorter than recommended for a level 1 MOSFET.
Instance "m:x1:x2:x2:x1:x2:x2:x2:x2:x3:5": Width narrower than recommended for a level 1 MOSFET.
Instance "m:x1:x2:x2:x1:x2:x2:x2:x2:x3:4": Length shorter than recommended for a level 1 MOSFET.
Instance "m:x1:x2:x2:x1:x2:x2:x2:x2:x3:4": Width narrower than recommended for a level 1 MOSFET.
Instance "m:x1:x2:x2:x1:x2:x2:x2:x2:x3:3": Length shorter than recommended for a level 1 MOSFET.
Instance "m:x1:x2:x2:x1:x2:x2:x2:x2:x3:3": Width narrower than recommended for a level 1 MOSFET.
Instance "m:x1:x2:x2:x1:x2:x2:x2:x2:x2:x3:5": Length shorter than recommended for a level 1 MOSFET.
Instance "m:x1:x2:x2:x1:x2:x2:x2:x2:x2:x3:5": Width narrower than recommended for a level 1 MOSFET.
Instance "m:x1:x2:x2:x1:x2:x2:x2:x2:x2:x3:4": Length shorter than recommended for a level 1 MOSFET.
Instance "m:x1:x2:x2:x1:x2:x2:x2:x2:x2:x3:4": Width narrower than recommended for a level 1 MOSFET.
Instance "m:x1:x2:x2:x1:x2:x2:x2:x2:x2:x3:3": Length shorter than recommended for a level 1 MOSFET.
Instance "m:x1:x2:x2:x1:x2:x2:x2:x2:x2:x3:3": Width narrower than recommended for a level 1 MOSFET.
[...]
Instance "m:x1:x1:x1:x1:x1:x2:x1:x1:x1:x2:2": Length shorter than recommended for a level 1 MOSFET.
Instance "m:x1:x1:x1:x1:x1:x2:x1:x1:x1:x2:2": Width narrower than recommended for a level 1 MOSFET.
Instance "m:x1:x1:x1:x1:x1:x2:x1:x1:x1:x2:1": Length shorter than recommended for a level 1 MOSFET.
Instance "m:x1:x1:x1:x1:x1:x2:x1:x1:x1:x2:1": Width narrower than recommended for a level 1 MOSFET.
Instance "m:x1:x1:x1:x1:x1:x2:x1:x1:x1:x1:6": Length shorter than recommended for a level 1 MOSFET.
Instance "m:x1:x1:x1:x1:x1:x2:x1:x1:x1:x1:6": Width narrower than recommended for a level 1 MOSFET.
Instance "m:x1:x1:x1:x1:x1:x2:x1:x1:x1:x1:2": Length shorter than recommended for a level 1 MOSFET.
Instance "m:x1:x1:x1:x1:x1:x2:x1:x1:x1:x1:2": Width narrower than recommended for a level 1 MOSFET.
Instance "m:x1:x1:x1:x1:x1:x2:x1:x1:x1:x1:1": Length shorter than recommended for a level 1 MOSFET.
Instance "m:x1:x1:x1:x1:x1:x2:x1:x1:x1:x1:1": Width narrower than recommended for a level 1 MOSFET.
Instance "m:x1:x1:x1:x1:x1:x1:x3:6": Length shorter than recommended for a level 1 MOSFET.
Instance "m:x1:x1:x1:x1:x1:x1:x3:6": Width narrower than recommended for a level 1 MOSFET.
Instance "m:x1:x1:x1:x1:x1:x1:x3:2": Length shorter than recommended for a level 1 MOSFET.
Instance "m:x1:x1:x1:x1:x1:x1:x3:2": Width narrower than recommended for a level 1 MOSFET.
Instance "m:x1:x1:x1:x1:x1:x1:x3:1": Length shorter than recommended for a level 1 MOSFET.
Instance "m:x1:x1:x1:x1:x1:x1:x3:1": Width narrower than recommended for a level 1 MOSFET.
Instance "m:x1:x1:x1:x1:x1:x1:x2:x3:6": Length shorter than recommended for a level 1 MOSFET.
Instance "m:x1:x1:x1:x1:x1:x1:x2:x3:6": Width narrower than recommended for a level 1 MOSFET.
Instance "m:x1:x1:x1:x1:x1:x1:x2:x3:2": Length shorter than recommended for a level 1 MOSFET.
Instance "m:x1:x1:x1:x1:x1:x1:x2:x3:2": Width narrower than recommended for a level 1 MOSFET.
Instance "m:x1:x1:x1:x1:x1:x1:x2:x3:1": Length shorter than recommended for a level 1 MOSFET.
Instance "m:x1:x1:x1:x1:x1:x1:x2:x3:1": Width narrower than recommended for a level 1 MOSFET.
Instance "m:x1:x1:x1:x1:x1:x1:x2:x2:x3:6": Length shorter than recommended for a level 1 MOSFET.
Instance "m:x1:x1:x1:x1:x1:x1:x2:x2:x3:6": Width narrower than recommended for a level 1 MOSFET.
Instance "m:x1:x1:x1:x1:x1:x1:x2:x2:x3:2": Length shorter than recommended for a level 1 MOSFET.
Instance "m:x1:x1:x1:x1:x1:x1:x2:x2:x3:2": Width narrower than recommended for a level 1 MOSFET.
Instance "m:x1:x1:x1:x1:x1:x1:x2:x2:x3:1": Length shorter than recommended for a level 1 MOSFET.
Instance "m:x1:x1:x1:x1:x1:x1:x2:x2:x3:1": Width narrower than recommended for a level 1 MOSFET.
Instance "m:x1:x1:x1:x1:x1:x1:x2:x2:x2:x3:6": Length shorter than recommended for a level 1 MOSFET.
Instance "m:x1:x1:x1:x1:x1:x1:x2:x2:x2:x3:6": Width narrower than recommended for a level 1 MOSFET.
Instance "m:x1:x1:x1:x1:x1:x1:x2:x2:x2:x3:2": Length shorter than recommended for a level 1 MOSFET.
Instance "m:x1:x1:x1:x1:x1:x1:x2:x2:x2:x3:2": Width narrower than recommended for a level 1 MOSFET.
Instance "m:x1:x1:x1:x1:x1:x1:x2:x2:x2:x3:1": Length shorter than recommended for a level 1 MOSFET.
Instance "m:x1:x1:x1:x1:x1:x1:x2:x2:x2:x3:1": Width narrower than recommended for a level 1 MOSFET.
Instance "m:x1:x1:x1:x1:x1:x1:x2:x2:x2:x2:6": Length shorter than recommended for a level 1 MOSFET.
Instance "m:x1:x1:x1:x1:x1:x1:x2:x2:x2:x2:6": Width narrower than recommended for a level 1 MOSFET.
Instance "m:x1:x1:x1:x1:x1:x1:x2:x2:x2:x2:2": Length shorter than recommended for a level 1 MOSFET.
Instance "m:x1:x1:x1:x1:x1:x1:x2:x2:x2:x2:2": Width narrower than recommended for a level 1 MOSFET.
Instance "m:x1:x1:x1:x1:x1:x1:x2:x2:x2:x2:1": Length shorter than recommended for a level 1 MOSFET.
Instance "m:x1:x1:x1:x1:x1:x1:x2:x2:x2:x2:1": Width narrower than recommended for a level 1 MOSFET.
Instance "m:x1:x1:x1:x1:x1:x1:x2:x2:x2:x1:6": Length shorter than recommended for a level 1 MOSFET.
Instance "m:x1:x1:x1:x1:x1:x1:x2:x2:x2:x1:6": Width narrower than recommended for a level 1 MOSFET.
Instance "m:x1:x1:x1:x1:x1:x1:x2:x2:x2:x1:2": Length shorter than recommended for a level 1 MOSFET.
Instance "m:x1:x1:x1:x1:x1:x1:x2:x2:x2:x1:2": Width narrower than recommended for a level 1 MOSFET.
Instance "m:x1:x1:x1:x1:x1:x1:x2:x2:x2:x1:1": Length shorter than recommended for a level 1 MOSFET.
Instance "m:x1:x1:x1:x1:x1:x1:x2:x2:x2:x1:1": Width narrower than recommended for a level 1 MOSFET.
Instance "m:x1:x1:x1:x1:x1:x1:x2:x2:x1:x3:6": Length shorter than recommended for a level 1 MOSFET.
Instance "m:x1:x1:x1:x1:x1:x1:x2:x2:x1:x3:6": Width narrower than recommended for a level 1 MOSFET.
Instance "m:x1:x1:x1:x1:x1:x1:x2:x2:x1:x3:2": Length shorter than recommended for a level 1 MOSFET.
Instance "m:x1:x1:x1:x1:x1:x1:x2:x2:x1:x3:2": Width narrower than recommended for a level 1 MOSFET.
Instance "m:x1:x1:x1:x1:x1:x1:x2:x2:x1:x3:1": Length shorter than recommended for a level 1 MOSFET.
Instance "m:x1:x1:x1:x1:x1:x1:x2:x2:x1:x3:1": Width narrower than recommended for a level 1 MOSFET.
Instance "m:x1:x1:x1:x1:x1:x1:x2:x2:x1:x2:6": Length shorter than recommended for a level 1 MOSFET.
Instance "m:x1:x1:x1:x1:x1:x1:x2:x2:x1:x2:6": Width narrower than recommended for a level 1 MOSFET.
Instance "m:x1:x1:x1:x1:x1:x1:x2:x2:x1:x2:2": Length shorter than recommended for a level 1 MOSFET.
Instance "m:x1:x1:x1:x1:x1:x1:x2:x2:x1:x2:2": Width narrower than recommended for a level 1 MOSFET.
Instance "m:x1:x1:x1:x1:x1:x1:x2:x2:x1:x2:1": Length shorter than recommended for a level 1 MOSFET.
Instance "m:x1:x1:x1:x1:x1:x1:x2:x2:x1:x2:1": Width narrower than recommended for a level 1 MOSFET.
Instance "m:x1:x1:x1:x1:x1:x1:x2:x2:x1:x1:6": Length shorter than recommended for a level 1 MOSFET.
Instance "m:x1:x1:x1:x1:x1:x1:x2:x2:x1:x1:6": Width narrower than recommended for a level 1 MOSFET.
Instance "m:x1:x1:x1:x1:x1:x1:x2:x2:x1:x1:2": Length shorter than recommended for a level 1 MOSFET.
Instance "m:x1:x1:x1:x1:x1:x1:x2:x2:x1:x1:2": Width narrower than recommended for a level 1 MOSFET.
Instance "m:x1:x1:x1:x1:x1:x1:x2:x2:x1:x1:1": Length shorter than recommended for a level 1 MOSFET.
Instance "m:x1:x1:x1:x1:x1:x1:x2:x2:x1:x1:1": Width narrower than recommended for a level 1 MOSFET.
Instance "m:x1:x1:x1:x1:x1:x1:x2:x1:x3:6": Length shorter than recommended for a level 1 MOSFET.
Instance "m:x1:x1:x1:x1:x1:x1:x2:x1:x3:6": Width narrower than recommended for a level 1 MOSFET.
Instance "m:x1:x1:x1:x1:x1:x1:x2:x1:x3:2": Length shorter than recommended for a level 1 MOSFET.
Instance "m:x1:x1:x1:x1:x1:x1:x2:x1:x3:2": Width narrower than recommended for a level 1 MOSFET.
Instance "m:x1:x1:x1:x1:x1:x1:x2:x1:x3:1": Length shorter than recommended for a level 1 MOSFET.
Instance "m:x1:x1:x1:x1:x1:x1:x2:x1:x3:1": Width narrower than recommended for a level 1 MOSFET.
Instance "m:x1:x1:x1:x1:x1:x1:x2:x1:x2:x3:6": Length shorter than recommended for a level 1 MOSFET.
Instance "m:x1:x1:x1:x1:x1:x1:x2:x1:x2:x3:6": Width narrower than recommended for a level 1 MOSFET.
Instance "m:x1:x1:x1:x1:x1:x1:x2:x1:x2:x3:2": Length shorter than recommended for a level 1 MOSFET.
Instance "m:x1:x1:x1:x1:x1:x1:x2:x1:x2:x3:2": Width narrower than recommended for a level 1 MOSFET.
Instance "m:x1:x1:x1:x1:x1:x1:x2:x1:x2:x3:1": Length shorter than recommended for a level 1 MOSFET.
Instance "m:x1:x1:x1:x1:x1:x1:x2:x1:x2:x3:1": Width narrower than recommended for a level 1 MOSFET.
Instance "m:x1:x1:x1:x1:x1:x1:x2:x1:x2:x2:6": Length shorter than recommended for a level 1 MOSFET.
Instance "m:x1:x1:x1:x1:x1:x1:x2:x1:x2:x2:6": Width narrower than recommended for a level 1 MOSFET.
Instance "m:x1:x1:x1:x1:x1:x1:x2:x1:x2:x2:2": Length shorter than recommended for a level 1 MOSFET.
Instance "m:x1:x1:x1:x1:x1:x1:x2:x1:x2:x2:2": Width narrower than recommended for a level 1 MOSFET.
Instance "m:x1:x1:x1:x1:x1:x1:x2:x1:x2:x2:1": Length shorter than recommended for a level 1 MOSFET.
Instance "m:x1:x1:x1:x1:x1:x1:x2:x1:x2:x2:1": Width narrower than recommended for a level 1 MOSFET.
Instance "m:x1:x1:x1:x1:x1:x1:x2:x1:x2:x1:6": Length shorter than recommended for a level 1 MOSFET.
Instance "m:x1:x1:x1:x1:x1:x1:x2:x1:x2:x1:6": Width narrower than recommended for a level 1 MOSFET.
Instance "m:x1:x1:x1:x1:x1:x1:x2:x1:x2:x1:2": Length shorter than recommended for a level 1 MOSFET.
Instance "m:x1:x1:x1:x1:x1:x1:x2:x1:x2:x1:2": Width narrower than recommended for a level 1 MOSFET.
Instance "m:x1:x1:x1:x1:x1:x1:x2:x1:x2:x1:1": Length shorter than recommended for a level 1 MOSFET.
Instance "m:x1:x1:x1:x1:x1:x1:x2:x1:x2:x1:1": Width narrower than recommended for a level 1 MOSFET.
Instance "m:x1:x1:x1:x1:x1:x1:x2:x1:x1:x3:6": Length shorter than recommended for a level 1 MOSFET.
Instance "m:x1:x1:x1:x1:x1:x1:x2:x1:x1:x3:6": Width narrower than recommended for a level 1 MOSFET.
Instance "m:x1:x1:x1:x1:x1:x1:x2:x1:x1:x3:2": Length shorter than recommended for a level 1 MOSFET.
Instance "m:x1:x1:x1:x1:x1:x1:x2:x1:x1:x3:2": Width narrower than recommended for a level 1 MOSFET.
Instance "m:x1:x1:x1:x1:x1:x1:x2:x1:x1:x3:1": Length shorter than recommended for a level 1 MOSFET.
Instance "m:x1:x1:x1:x1:x1:x1:x2:x1:x1:x3:1": Width narrower than recommended for a level 1 MOSFET.
Instance "m:x1:x1:x1:x1:x1:x1:x2:x1:x1:x2:6": Length shorter than recommended for a level 1 MOSFET.
Instance "m:x1:x1:x1:x1:x1:x1:x2:x1:x1:x2:6": Width narrower than recommended for a level 1 MOSFET.
Instance "m:x1:x1:x1:x1:x1:x1:x2:x1:x1:x2:2": Length shorter than recommended for a level 1 MOSFET.
Instance "m:x1:x1:x1:x1:x1:x1:x2:x1:x1:x2:2": Width narrower than recommended for a level 1 MOSFET.
Instance "m:x1:x1:x1:x1:x1:x1:x2:x1:x1:x2:1": Length shorter than recommended for a level 1 MOSFET.
Instance "m:x1:x1:x1:x1:x1:x1:x2:x1:x1:x2:1": Width narrower than recommended for a level 1 MOSFET.
Instance "m:x1:x1:x1:x1:x1:x1:x2:x1:x1:x1:6": Length shorter than recommended for a level 1 MOSFET.
Instance "m:x1:x1:x1:x1:x1:x1:x2:x1:x1:x1:6": Width narrower than recommended for a level 1 MOSFET.
Instance "m:x1:x1:x1:x1:x1:x1:x2:x1:x1:x1:2": Length shorter than recommended for a level 1 MOSFET.
Instance "m:x1:x1:x1:x1:x1:x1:x2:x1:x1:x1:2": Width narrower than recommended for a level 1 MOSFET.
Instance "m:x1:x1:x1:x1:x1:x1:x2:x1:x1:x1:1": Length shorter than recommended for a level 1 MOSFET.
Instance "m:x1:x1:x1:x1:x1:x1:x2:x1:x1:x1:1": Width narrower than recommended for a level 1 MOSFET.
Instance "m:x1:x1:x1:x1:x1:x1:x1:x3:6": Length shorter than recommended for a level 1 MOSFET.
Instance "m:x1:x1:x1:x1:x1:x1:x1:x3:6": Width narrower than recommended for a level 1 MOSFET.
Instance "m:x1:x1:x1:x1:x1:x1:x1:x3:2": Length shorter than recommended for a level 1 MOSFET.
Instance "m:x1:x1:x1:x1:x1:x1:x1:x3:2": Width narrower than recommended for a level 1 MOSFET.
Instance "m:x1:x1:x1:x1:x1:x1:x1:x3:1": Length shorter than recommended for a level 1 MOSFET.
Instance "m:x1:x1:x1:x1:x1:x1:x1:x3:1": Width narrower than recommended for a level 1 MOSFET.
Instance "m:x1:x1:x1:x1:x1:x1:x1:x2:x3:6": Length shorter than recommended for a level 1 MOSFET.
Instance "m:x1:x1:x1:x1:x1:x1:x1:x2:x3:6": Width narrower than recommended for a level 1 MOSFET.
Instance "m:x1:x1:x1:x1:x1:x1:x1:x2:x3:2": Length shorter than recommended for a level 1 MOSFET.
Instance "m:x1:x1:x1:x1:x1:x1:x1:x2:x3:2": Width narrower than recommended for a level 1 MOSFET.
Instance "m:x1:x1:x1:x1:x1:x1:x1:x2:x3:1": Length shorter than recommended for a level 1 MOSFET.
Instance "m:x1:x1:x1:x1:x1:x1:x1:x2:x3:1": Width narrower than recommended for a level 1 MOSFET.
Instance "m:x1:x1:x1:x1:x1:x1:x1:x2:x2:x3:6": Length shorter than recommended for a level 1 MOSFET.
Instance "m:x1:x1:x1:x1:x1:x1:x1:x2:x2:x3:6": Width narrower than recommended for a level 1 MOSFET.
Instance "m:x1:x1:x1:x1:x1:x1:x1:x2:x2:x3:2": Length shorter than recommended for a level 1 MOSFET.
Instance "m:x1:x1:x1:x1:x1:x1:x1:x2:x2:x3:2": Width narrower than recommended for a level 1 MOSFET.
Instance "m:x1:x1:x1:x1:x1:x1:x1:x2:x2:x3:1": Length shorter than recommended for a level 1 MOSFET.
Instance "m:x1:x1:x1:x1:x1:x1:x1:x2:x2:x3:1": Width narrower than recommended for a level 1 MOSFET.
Instance "m:x1:x1:x1:x1:x1:x1:x1:x2:x2:x2:6": Length shorter than recommended for a level 1 MOSFET.
Instance "m:x1:x1:x1:x1:x1:x1:x1:x2:x2:x2:6": Width narrower than recommended for a level 1 MOSFET.
Instance "m:x1:x1:x1:x1:x1:x1:x1:x2:x2:x2:2": Length shorter than recommended for a level 1 MOSFET.
Instance "m:x1:x1:x1:x1:x1:x1:x1:x2:x2:x2:2": Width narrower than recommended for a level 1 MOSFET.
Instance "m:x1:x1:x1:x1:x1:x1:x1:x2:x2:x2:1": Length shorter than recommended for a level 1 MOSFET.
Instance "m:x1:x1:x1:x1:x1:x1:x1:x2:x2:x2:1": Width narrower than recommended for a level 1 MOSFET.
Instance "m:x1:x1:x1:x1:x1:x1:x1:x2:x2:x1:6": Length shorter than recommended for a level 1 MOSFET.
Instance "m:x1:x1:x1:x1:x1:x1:x1:x2:x2:x1:6": Width narrower than recommended for a level 1 MOSFET.
Instance "m:x1:x1:x1:x1:x1:x1:x1:x2:x2:x1:2": Length shorter than recommended for a level 1 MOSFET.
Instance "m:x1:x1:x1:x1:x1:x1:x1:x2:x2:x1:2": Width narrower than recommended for a level 1 MOSFET.
Instance "m:x1:x1:x1:x1:x1:x1:x1:x2:x2:x1:1": Length shorter than recommended for a level 1 MOSFET.
Instance "m:x1:x1:x1:x1:x1:x1:x1:x2:x2:x1:1": Width narrower than recommended for a level 1 MOSFET.
Instance "m:x1:x1:x1:x1:x1:x1:x1:x2:x1:x3:6": Length shorter than recommended for a level 1 MOSFET.
Instance "m:x1:x1:x1:x1:x1:x1:x1:x2:x1:x3:6": Width narrower than recommended for a level 1 MOSFET.
Instance "m:x1:x1:x1:x1:x1:x1:x1:x2:x1:x3:2": Length shorter than recommended for a level 1 MOSFET.
Instance "m:x1:x1:x1:x1:x1:x1:x1:x2:x1:x3:2": Width narrower than recommended for a level 1 MOSFET.
Instance "m:x1:x1:x1:x1:x1:x1:x1:x2:x1:x3:1": Length shorter than recommended for a level 1 MOSFET.
Instance "m:x1:x1:x1:x1:x1:x1:x1:x2:x1:x3:1": Width narrower than recommended for a level 1 MOSFET.
Instance "m:x1:x1:x1:x1:x1:x1:x1:x2:x1:x2:6": Length shorter than recommended for a level 1 MOSFET.
Instance "m:x1:x1:x1:x1:x1:x1:x1:x2:x1:x2:6": Width narrower than recommended for a level 1 MOSFET.
Instance "m:x1:x1:x1:x1:x1:x1:x1:x2:x1:x2:2": Length shorter than recommended for a level 1 MOSFET.
Instance "m:x1:x1:x1:x1:x1:x1:x1:x2:x1:x2:2": Width narrower than recommended for a level 1 MOSFET.
Instance "m:x1:x1:x1:x1:x1:x1:x1:x2:x1:x2:1": Length shorter than recommended for a level 1 MOSFET.
Instance "m:x1:x1:x1:x1:x1:x1:x1:x2:x1:x2:1": Width narrower than recommended for a level 1 MOSFET.
Instance "m:x1:x1:x1:x1:x1:x1:x1:x2:x1:x1:6": Length shorter than recommended for a level 1 MOSFET.
Instance "m:x1:x1:x1:x1:x1:x1:x1:x2:x1:x1:6": Width narrower than recommended for a level 1 MOSFET.
Instance "m:x1:x1:x1:x1:x1:x1:x1:x2:x1:x1:2": Length shorter than recommended for a level 1 MOSFET.
Instance "m:x1:x1:x1:x1:x1:x1:x1:x2:x1:x1:2": Width narrower than recommended for a level 1 MOSFET.
Instance "m:x1:x1:x1:x1:x1:x1:x1:x2:x1:x1:1": Length shorter than recommended for a level 1 MOSFET.
Instance "m:x1:x1:x1:x1:x1:x1:x1:x2:x1:x1:1": Width narrower than recommended for a level 1 MOSFET.
Instance "m:x1:x1:x1:x1:x1:x1:x1:x1:x3:6": Length shorter than recommended for a level 1 MOSFET.
Instance "m:x1:x1:x1:x1:x1:x1:x1:x1:x3:6": Width narrower than recommended for a level 1 MOSFET.
Instance "m:x1:x1:x1:x1:x1:x1:x1:x1:x3:2": Length shorter than recommended for a level 1 MOSFET.
Instance "m:x1:x1:x1:x1:x1:x1:x1:x1:x3:2": Width narrower than recommended for a level 1 MOSFET.
Instance "m:x1:x1:x1:x1:x1:x1:x1:x1:x3:1": Length shorter than recommended for a level 1 MOSFET.
Instance "m:x1:x1:x1:x1:x1:x1:x1:x1:x3:1": Width narrower than recommended for a level 1 MOSFET.
Instance "m:x1:x1:x1:x1:x1:x1:x1:x1:x2:x3:6": Length shorter than recommended for a level 1 MOSFET.
Instance "m:x1:x1:x1:x1:x1:x1:x1:x1:x2:x3:6": Width narrower than recommended for a level 1 MOSFET.
Instance "m:x1:x1:x1:x1:x1:x1:x1:x1:x2:x3:2": Length shorter than recommended for a level 1 MOSFET.
Instance "m:x1:x1:x1:x1:x1:x1:x1:x1:x2:x3:2": Width narrower than recommended for a level 1 MOSFET.
Instance "m:x1:x1:x1:x1:x1:x1:x1:x1:x2:x3:1": Length shorter than recommended for a level 1 MOSFET.
Instance "m:x1:x1:x1:x1:x1:x1:x1:x1:x2:x3:1": Width narrower than recommended for a level 1 MOSFET.
Instance "m:x1:x1:x1:x1:x1:x1:x1:x1:x2:x2:6": Length shorter than recommended for a level 1 MOSFET.
Instance "m:x1:x1:x1:x1:x1:x1:x1:x1:x2:x2:6": Width narrower than recommended for a level 1 MOSFET.
Instance "m:x1:x1:x1:x1:x1:x1:x1:x1:x2:x2:2": Length shorter than recommended for a level 1 MOSFET.
Instance "m:x1:x1:x1:x1:x1:x1:x1:x1:x2:x2:2": Width narrower than recommended for a level 1 MOSFET.
Instance "m:x1:x1:x1:x1:x1:x1:x1:x1:x2:x2:1": Length shorter than recommended for a level 1 MOSFET.
Instance "m:x1:x1:x1:x1:x1:x1:x1:x1:x2:x2:1": Width narrower than recommended for a level 1 MOSFET.
Instance "m:x1:x1:x1:x1:x1:x1:x1:x1:x2:x1:6": Length shorter than recommended for a level 1 MOSFET.
Instance "m:x1:x1:x1:x1:x1:x1:x1:x1:x2:x1:6": Width narrower than recommended for a level 1 MOSFET.
Instance "m:x1:x1:x1:x1:x1:x1:x1:x1:x2:x1:2": Length shorter than recommended for a level 1 MOSFET.
Instance "m:x1:x1:x1:x1:x1:x1:x1:x1:x2:x1:2": Width narrower than recommended for a level 1 MOSFET.
Instance "m:x1:x1:x1:x1:x1:x1:x1:x1:x2:x1:1": Length shorter than recommended for a level 1 MOSFET.
Instance "m:x1:x1:x1:x1:x1:x1:x1:x1:x2:x1:1": Width narrower than recommended for a level 1 MOSFET.
Instance "m:x1:x1:x1:x1:x1:x1:x1:x1:x1:x3:6": Length shorter than recommended for a level 1 MOSFET.
Instance "m:x1:x1:x1:x1:x1:x1:x1:x1:x1:x3:6": Width narrower than recommended for a level 1 MOSFET.
Instance "m:x1:x1:x1:x1:x1:x1:x1:x1:x1:x3:2": Length shorter than recommended for a level 1 MOSFET.
Instance "m:x1:x1:x1:x1:x1:x1:x1:x1:x1:x3:2": Width narrower than recommended for a level 1 MOSFET.
Instance "m:x1:x1:x1:x1:x1:x1:x1:x1:x1:x3:1": Length shorter than recommended for a level 1 MOSFET.
Instance "m:x1:x1:x1:x1:x1:x1:x1:x1:x1:x3:1": Width narrower than recommended for a level 1 MOSFET.
Instance "m:x1:x1:x1:x1:x1:x1:x1:x1:x1:x2:6": Length shorter than recommended for a level 1 MOSFET.
Instance "m:x1:x1:x1:x1:x1:x1:x1:x1:x1:x2:6": Width narrower than recommended for a level 1 MOSFET.
Instance "m:x1:x1:x1:x1:x1:x1:x1:x1:x1:x2:2": Length shorter than recommended for a level 1 MOSFET.
Instance "m:x1:x1:x1:x1:x1:x1:x1:x1:x1:x2:2": Width narrower than recommended for a level 1 MOSFET.
Instance "m:x1:x1:x1:x1:x1:x1:x1:x1:x1:x2:1": Length shorter than recommended for a level 1 MOSFET.
Instance "m:x1:x1:x1:x1:x1:x1:x1:x1:x1:x2:1": Width narrower than recommended for a level 1 MOSFET.
Instance "m:x1:x1:x1:x1:x1:x1:x1:x1:x1:x1:6": Length shorter than recommended for a level 1 MOSFET.
Instance "m:x1:x1:x1:x1:x1:x1:x1:x1:x1:x1:6": Width narrower than recommended for a level 1 MOSFET.
Instance "m:x1:x1:x1:x1:x1:x1:x1:x1:x1:x1:2": Length shorter than recommended for a level 1 MOSFET.
Instance "m:x1:x1:x1:x1:x1:x1:x1:x1:x1:x1:2": Width narrower than recommended for a level 1 MOSFET.
Instance "m:x1:x1:x1:x1:x1:x1:x1:x1:x1:x1:1": Length shorter than recommended for a level 1 MOSFET.
Instance "m:x1:x1:x1:x1:x1:x1:x1:x1:x1:x1:1": Width narrower than recommended for a level 1 MOSFET.
Direct Newton iteration for .op point succeeded.

Date: Fri Jun 26 12:00:31 2020
Total elapsed time: 9.143 seconds.

tnom = 27
temp = 27
method = modified trap
totiter = 2109
traniter = 2082
tranpoints = 1042
accept = 1042
rejected = 0
matrix size = 5393
fillins = 10532
solver = Normal
Thread vector: 2957.1/1413.3[8] 1412.8/503.7[8] 752.1/596.3[4] 76.9/93.0[1]  2592/500
Matrix Compiler1: 1.21 MB object code size  571.0/365.8/[302.3]
Matrix Compiler2: 817.09 KB object code size  213.2/199.8/[129.7]

